 BEGIN_INFO
   #
   # This is a XCRYSDEN-Structure-File
   #
   # aimed for Visualization of geometry
   #
   # Launch as: xcrysden --xsf HICOLM.XSF
   #
   #
 END_INFO
 # estrutura final
CRYSTAL
PRIMVEC
      20.00000000       0.00000000       0.00000000
       0.00000000      20.00000000       0.00000000
       0.00000000       0.00000000      20.00000000
PRIMCOORD
   12    1
    6    7.50706488    7.50000023    4.65300984     -1.43834584   -0.00001099   -3.86732072     -0.30076287    0.00000002   -5.77352682
    6    8.83925872    7.50000026    4.65296232      1.43888393   -0.00001158   -3.86845614      0.30082542   -0.00000041   -5.77398957
    1    6.96534483    7.36386377    3.72472228      0.71892641    0.41187111    1.64065085      2.62748023   11.40350247   -2.31144916
    1    6.96534483    7.63613269    3.72472169      0.71892697   -0.41185913    1.64065342      2.62747957  -11.40349996   -2.31140431
    1    9.38091305    7.63604459    3.72462169     -0.71920136   -0.41168484    1.64126618     -2.62805512  -11.40358341   -2.31051901
    1    9.38091306    7.36395171    3.72462231     -0.71920235    0.41169745    1.64126287     -2.62805700   11.40358922   -2.31056744
    6    7.50651395    7.50000012   -1.18722246     -1.86312001   -0.00000354   -2.29946663     -0.32401286   -0.00000167    4.38422781
    6    8.83981302    7.50000011   -1.18722837      1.86361071   -0.00000351   -2.30002595      0.32401744   -0.00000162    4.38424072
    1    6.96499310    7.32217081   -2.10814325      0.92773824    0.35811549    1.44268268      2.72017484   -4.29504764   10.59019777
    1    6.96499310    7.67782851   -2.10814343      0.92773805   -0.35811296    1.44268390      2.72017488    4.29506563   10.59019644
    1    9.38132601    7.67783457   -2.10815348     -0.92797731   -0.35819174    1.44303536     -2.71999863    4.29505476   10.59011631
    1    9.38132601    7.32216476   -2.10815331     -0.92797743    0.35819423    1.44303419     -2.71999870   -4.29503718   10.59011765
