 BEGIN_INFO
   #
   # This is a XCRYSDEN-Structure-File
   #
   # aimed for Visualization of geometry
   #
   # Launch as: xcrysden --xsf HICOLM.XSF
   #
   #
 END_INFO
 # estrutura final
CRYSTAL
PRIMVEC
      20.00000000       0.00000000       0.00000000
       0.00000000      20.00000000       0.00000000
       0.00000000       0.00000000      20.00000000
PRIMCOORD
   12    1
    6    7.50632000    7.50000000    7.60000000     16.33725688    0.00000000    0.00281358      0.00000000    0.00000000    0.00000000
    6    8.84000000    7.50000000    7.60000000    -16.33725688    0.00000000    0.00281358      0.00000000    0.00000000    0.00000000
    1    6.96132000    6.55603000    7.60000000     -8.16800303  -12.23303438    0.00249460      0.00000000    0.00000000    0.00000000
    1    6.96132000    8.44397000    7.60000000     -8.16800303   12.23303438    0.00249460      0.00000000    0.00000000    0.00000000
    1    9.38500000    8.44397000    7.60000000      8.16800303   12.23303438    0.00249460      0.00000000    0.00000000    0.00000000
    1    9.38500000    6.55603000    7.60000000      8.16800303  -12.23303438    0.00249460      0.00000000    0.00000000    0.00000000
    6    7.50632000    7.50000000   -4.40000000     16.33725688    0.00000000   -0.00281358      0.00000000    0.00000000    0.00000000
    6    8.84000000    7.50000000   -4.40000000    -16.33725688    0.00000000   -0.00281358      0.00000000    0.00000000    0.00000000
    1    6.96132000    6.55603000   -4.40000000     -8.16800303  -12.23303438   -0.00249460      0.00000000    0.00000000    0.00000000
    1    6.96132000    8.44397000   -4.40000000     -8.16800303   12.23303438   -0.00249460      0.00000000    0.00000000    0.00000000
    1    9.38500000    8.44397000   -4.40000000      8.16800303   12.23303438   -0.00249460      0.00000000    0.00000000    0.00000000
    1    9.38500000    6.55603000   -4.40000000      8.16800303  -12.23303438   -0.00249460      0.00000000    0.00000000    0.00000000
