 BEGIN_INFO
   #
   # This is a XCRYSDEN-Structure-File
   #
   # aimed for Visualization of geometry
   #
   # Launch as: xcrysden --xsf HICOLM.XSF
   #
   #
 END_INFO
 # estrutura final
CRYSTAL
PRIMVEC
      20.00000000       0.00000000       0.00000000
       0.00000000      20.00000000       0.00000000
       0.00000000       0.00000000      20.00000000
PRIMCOORD
   12    1
    6    7.50632000    7.50000000    7.60000000     -1.21936327   -0.15017539   -2.19615961      4.55709998    4.55709998    4.55709998
    6    8.84000000    7.50000000    7.60000000      1.21936327    0.15017539   -2.19615961      4.55709998    4.55709998    4.55709998
    1    6.96132000    6.55603000    7.40000000      0.76360331    0.69668398    2.38694111     15.73127758   15.73127758   15.73127758
    1    6.96132000    8.44397000    7.60000000      0.97902948   -0.93966239    3.01574261     15.73127758   15.73127758   15.73127758
    1    9.38500000    8.44397000    7.40000000     -0.76360331   -0.69668398    2.38694111     15.73127758   15.73127758   15.73127758
    1    9.38500000    6.55603000    7.60000000     -0.97902948    0.93966239    3.01574261     15.73127758   15.73127758   15.73127758
    6    7.50632000    7.50000000   -9.40000000     -1.38535174    0.10624124    3.62156725      4.55709998    4.55709998    4.55709998
    6    8.84000000    7.50000000   -9.40000000      1.38535174   -0.10624124    3.62156725      4.55709998    4.55709998    4.55709998
    1    6.96132000    6.55603000   -9.60000000      1.37588608    1.33143332   -3.78542559     15.73127758   15.73127758   15.73127758
    1    6.96132000    8.44397000   -9.40000000      1.08547194   -1.00586691   -3.04266577     15.73127758   15.73127758   15.73127758
    1    9.38500000    8.44397000   -9.60000000     -1.37588608   -1.33143332   -3.78542559     15.73127758   15.73127758   15.73127758
    1    9.38500000    6.55603000   -9.40000000     -1.08547194    1.00586691   -3.04266577     15.73127758   15.73127758   15.73127758
