 BEGIN_INFO
   #
   # This is a XCRYSDEN-Structure-File
   #
   # aimed for Visualization of geometry
   #
   # Launch as: xcrysden --xsf HICOLM.XSF
   #
   #
 END_INFO
 # estrutura final
CRYSTAL
PRIMVEC
      20.00000000       0.00000000       0.00000000
       0.00000000      20.00000000       0.00000000
       0.00000000       0.00000000      20.00000000
PRIMCOORD
   12    1
    6    7.50632000    7.50000000    7.60000000     -1.22494051   -0.12254369   -2.80192317      4.55709998    4.55709998    4.55709998
    6    8.84000000    7.50000000    7.60000000      1.22494051    0.12254369   -2.80192317      4.55709998    4.55709998    4.55709998
    1    6.96132000    6.55603000    7.40000000      0.54188274    0.43838133    0.35114229     15.73127758   15.73127758   15.73127758
    1    6.96132000    8.44397000    7.60000000      0.63464059   -0.47410476    0.57463534     15.73127758   15.73127758   15.73127758
    1    9.38500000    8.44397000    7.40000000     -0.54188274   -0.43838133    0.35114229     15.73127758   15.73127758   15.73127758
    1    9.38500000    6.55603000    7.60000000     -0.63464059    0.47410476    0.57463534     15.73127758   15.73127758   15.73127758
    6    7.50632000    7.50000000   -9.40000000     -1.39595955    0.09063447    4.03660752      4.55709998    4.55709998    4.55709998
    6    8.84000000    7.50000000   -9.40000000      1.39595955   -0.09063447    4.03660752      4.55709998    4.55709998    4.55709998
    1    6.96132000    6.55603000   -9.60000000      0.99402745    0.82148351   -1.22899025     15.73127758   15.73127758   15.73127758
    1    6.96132000    8.44397000   -9.40000000      0.84003322   -0.72050092   -0.93147174     15.73127758   15.73127758   15.73127758
    1    9.38500000    8.44397000   -9.60000000     -0.99402745   -0.82148351   -1.22899025     15.73127758   15.73127758   15.73127758
    1    9.38500000    6.55603000   -9.40000000     -0.84003322    0.72050092   -0.93147174     15.73127758   15.73127758   15.73127758
