 BEGIN_INFO
   #
   # This is a XCRYSDEN-Structure-File
   #
   # aimed for Visualization of geometry
   #
   # Launch as: xcrysden --xsf HICOLM.XSF
   #
   #
 END_INFO
 # estrutura final
CRYSTAL
PRIMVEC
      21.00000000       0.00000000       0.00000000
       0.00000000      21.00000000       0.00000000
       0.00000000       0.00000000      21.00000000
PRIMCOORD
    6    1
    8    7.63287308    7.34085282    7.40696554   -114.51468045   23.51537778   25.79005893     -0.53328188    2.25190175    2.61940804
    1    6.87653328    7.68854200    6.92917537     45.98380857    3.81594069  -63.90784494      1.42034196  -25.41435543    8.21826467
    1    7.30680209    7.18668352    8.29213446     69.42952408  -29.26576700   27.42739612     10.39637869  -11.45209036  -22.31762329
    8    7.24049051    7.63224089  -10.24199254     17.63938481   16.02383068   12.13409876     -0.80894995    1.93575015    0.34090436
    1    7.91994522    7.46921739   -9.61321119      0.48092622  -29.81543291   22.53825049     -1.63853606  -18.49487605  -27.79060355
    1    7.48797251    8.44262730   10.34791984    -19.01896323   15.72605076  -23.98195936     11.12839732  -11.11344527   -5.10202327
