 BEGIN_INFO
   #
   # This is a XCRYSDEN-Structure-File
   #
   # aimed for Visualization of geometry
   #
   # Launch as: xcrysden --xsf HICOLM.XSF
   #
   #
 END_INFO
 # estrutura final
CRYSTAL
PRIMVEC
      28.00000000       0.00000000       0.00000000
       0.00000000      28.00000000       0.00000000
       0.00000000       0.00000000      28.00000000
PRIMCOORD
    6    1
    6    7.50632000    7.50000000    7.60000000
    6    8.84000000    7.50000000    7.60000000
    1    6.96132000    6.55603000    7.40000000
    1    6.96132000    8.44397000    7.60000000
    1    9.38500000    8.44397000    7.40000000
    1    9.38500000    6.55603000    7.60000000
