 BEGIN_INFO
   #
   # This is a XCRYSDEN-Structure-File
   #
   # aimed for Visualization of geometry
   #
   # Launch as: xcrysden --xsf HICOLM.XSF
   #
   #
 END_INFO
 # estrutura final
CRYSTAL
PRIMVEC
      21.00000000       0.00000000       0.00000000
       0.00000000      21.00000000       0.00000000
       0.00000000       0.00000000      21.00000000
PRIMCOORD
    6    1
    8    7.49885075    7.50101646    7.59039079    249.23553859  -33.92055588 -171.94692446     -6.52659898    0.88818013   -9.42583337
    1    6.79980652    6.81356168    7.59993126   -106.82600865  147.68744087    2.07336990     61.28188860   62.60542595   -0.16174993
    1    7.00895034    8.35028308    7.59993126   -142.40952994 -113.76688499    2.07337397     42.32131379  -76.70439329   -0.16174296
    8    7.49885075    7.50101646  -10.39039079    249.23553859  -33.92055588  171.94692446     -6.52659898    0.88818013    9.42583337
    1    6.79980652    6.81356168  -10.39993126   -106.82600865  147.68744087   -2.07336990     61.28188860   62.60542595    0.16174993
    1    7.00895034    8.35028308  -10.39993126   -142.40952994 -113.76688499   -2.07337397     42.32131379  -76.70439329    0.16174296
