 BEGIN_INFO
   #
   # This is a XCRYSDEN-Structure-File
   # aimed for Visualization of Fermi Surface
   #
   # Case: Tight-binding calculation
   #
   # Launch as: xcrysden --xsf HICOLM.XSF
   #
 END_INFO
 # estrutura final
CRYSTAL
PRIMVEC
      19.00000000       0.00000000       0.00000000
       0.00000000      19.00000000       0.00000000
       0.00000000       0.00000000      19.00000000
PRIMCOORD
    6    1
    6   -9.52453023    9.50000000    9.50000000     -1.09153746    0.00000000   -0.00000000      0.00000000    0.00000000    0.00000000
    6   -8.12914977    9.50000000    9.50000000      1.09153746    0.00000000   -0.00000000      0.00000000    0.00000000    0.00000000
    1    8.95400105    8.55396498    9.50000000     -3.90081343    0.57561784    0.00000001      0.00000000    0.00000000    0.00000000
    1    8.95400105   -8.55396498   -9.50000000     -3.90081343   -0.57561784   -0.00000001      0.00000000    0.00000000    0.00000000
    1   -7.60768105   -8.55396498    9.50000000      3.90081343   -0.57561784    0.00000001      0.00000000    0.00000000    0.00000000
    1   -7.60768105    8.55396498   -9.50000000      3.90081343    0.57561784   -0.00000001      0.00000000    0.00000000    0.00000000
