 BEGIN_INFO
   #
   # This is a XCRYSDEN-Structure-File
   # aimed for Visualization of Fermi Surface
   #
   # Case: Tight-binding calculation
   #
   # Launch as: xcrysden --xsf HICOLM.XSF
   #
 END_INFO
 # estrutura final
CRYSTAL
PRIMVEC
      19.00000000       0.00000000       0.00000000
       0.00000000      19.00000000       0.00000000
       0.00000000       0.00000000      19.00000000
PRIMCOORD
    6    1
    6   -9.52483654    9.50000000    9.50000000     -1.16479659    0.00000000    0.00000000      0.00000000    0.00000000    0.00000000
    6   -8.12884346    9.50000000    9.50000000      1.16479659   -0.00000000    0.00000000      0.00000000    0.00000000    0.00000000
    1    8.95289254    8.55797331    9.40799453     -4.22013610    0.22202421    3.36815248      0.00000000    0.00000000    0.00000000
    1    8.95289254   -8.55797331   -9.40799453     -4.22013610   -0.22202421   -3.36815248      0.00000000    0.00000000    0.00000000
    1   -7.60657254   -8.55797331    9.40799453      4.22013610   -0.22202421    3.36815248      0.00000000    0.00000000    0.00000000
    1   -7.60657254    8.55797331   -9.40799453      4.22013610    0.22202421   -3.36815248      0.00000000    0.00000000    0.00000000
