 BEGIN_INFO
   #
   # This is a XCRYSDEN-Structure-File
   # aimed for Visualization of Fermi Surface
   #
   # Case: Tight-binding calculation
   #
   # Launch as: xcrysden --xsf HICOLM.XSF
   #
 END_INFO
 # estrutura final
CRYSTAL
PRIMVEC
      19.00000000       0.00000000       0.00000000
       0.00000000      19.00000000       0.00000000
       0.00000000       0.00000000      19.00000000
PRIMCOORD
    6    1
    6   -9.49369289    9.50000000    9.50000000   -128.86925367    0.00000000    0.00000000      0.00000000    0.00000000    0.00000000
    6   -8.16001289    9.50000000    9.50000000    128.86925367    0.00000000   -0.00000000      0.00000000    0.00000000    0.00000000
    1    8.96130711    8.55603000    9.40000000      2.92084599    8.49290617    3.97534187      0.00000000    0.00000000    0.00000000
    1    8.96130711   -8.55603000   -9.40000000      2.92084599   -8.49290617   -3.97534187      0.00000000    0.00000000    0.00000000
    1   -7.61501289   -8.55603000    9.40000000     -2.92084599   -8.49290617    3.97534187      0.00000000    0.00000000    0.00000000
    1   -7.61501289    8.55603000   -9.40000000     -2.92084599    8.49290617   -3.97534187      0.00000000    0.00000000    0.00000000
