 BEGIN_INFO
   #
   # This is a XCRYSDEN-Structure-File
   # aimed for Visualization of Fermi Surface
   #
   # Case: Tight-binding calculation
   #
   # Launch as: xcrysden --xsf HICOLM.XSF
   #
 END_INFO
 # estrutura final
CRYSTAL
PRIMVEC
      19.00000000       0.00000000       0.00000000
       0.00000000      19.00000000       0.00000000
       0.00000000       0.00000000      19.00000000
PRIMCOORD
    6    1
    6   -9.52379371   -9.50000000   -9.50000000     -0.86900860   -0.00000000   -0.00000000      0.00000000    0.00000000    0.00000000
    6   -8.12988629   -9.50000000   -9.50000000      0.86900860    0.00000000   -0.00000000      0.00000000    0.00000000    0.00000000
    1    8.95817405    8.55912833    9.40032822     -2.42300043    0.21336758    0.02260322      0.00000000    0.00000000    0.00000000
    1    8.95817405   -8.55912833   -9.40032822     -2.42300043   -0.21336758   -0.02260322      0.00000000    0.00000000    0.00000000
    1   -7.61185405   -8.55912833    9.40032822      2.42300043   -0.21336758    0.02260322      0.00000000    0.00000000    0.00000000
    1   -7.61185405    8.55912833   -9.40032822      2.42300043    0.21336758   -0.02260322      0.00000000    0.00000000    0.00000000
