 BEGIN_INFO
   #
   # This is a XCRYSDEN-Structure-File
   # aimed for Visualization of Fermi Surface
   #
   # Case: Tight-binding calculation
   #
   # Launch as: xcrysden --xsf HICOLM.XSF
   #
 END_INFO
 # estrutura final
CRYSTAL
PRIMVEC
      19.00000000       0.00000000       0.00000000
       0.00000000      19.00000000       0.00000000
       0.00000000       0.00000000      19.00000000
PRIMCOORD
    6    1
    6   -9.52974824    9.50000000    9.50000000     -0.00082183   -0.00000000   -0.00000000      0.00000000    0.00000000    0.00000000
    6   -8.12393176    9.50000000    9.50000000      0.00082183    0.00000000    0.00000000      0.00000000    0.00000000    0.00000000
    1    8.91123858    8.57239124    9.49335832     -0.00872608    0.00287946    0.25730229      0.00000000    0.00000000    0.00000000
    1    8.91123858   -8.57239124   -9.49335832     -0.00872608   -0.00287946   -0.25730229      0.00000000    0.00000000    0.00000000
    1   -7.56491858   -8.57239124    9.49335832      0.00872608   -0.00287946    0.25730229      0.00000000    0.00000000    0.00000000
    1   -7.56491858    8.57239124   -9.49335832      0.00872608    0.00287946   -0.25730229      0.00000000    0.00000000    0.00000000
