 BEGIN_INFO
   #
   # This is a XCRYSDEN-Structure-File
   # aimed for Visualization of Fermi Surface
   #
   # Case: Tight-binding calculation
   #
   # Launch as: xcrysden --xsf HICOLM.XSF
   #
 END_INFO
 # estrutura final
CRYSTAL
PRIMVEC
      19.00000000       0.00000000       0.00000000
       0.00000000      19.00000000       0.00000000
       0.00000000       0.00000000      19.00000000
PRIMCOORD
    6    1
    6   -9.52452696    9.50000000    9.50000000     -1.09049485    0.00000000    0.00000000      0.00000000    0.00000000    0.00000000
    6   -8.12915304    9.50000000    9.50000000      1.09049485    0.00000000   -0.00000000      0.00000000    0.00000000    0.00000000
    1    8.95404114    8.55834922    9.40882346     -3.88649402    0.20881183    3.73035812      0.00000000    0.00000000    0.00000000
    1    8.95404114   -8.55834922   -9.40882346     -3.88649402   -0.20881183   -3.73035812      0.00000000    0.00000000    0.00000000
    1   -7.60772114   -8.55834922    9.40882346      3.88649402   -0.20881183    3.73035812      0.00000000    0.00000000    0.00000000
    1   -7.60772114    8.55834922   -9.40882346      3.88649402    0.20881183   -3.73035812      0.00000000    0.00000000    0.00000000
