 BEGIN_INFO
   #
   # This is a XCRYSDEN-Structure-File
   # aimed for Visualization of Fermi Surface
   #
   # Case: Tight-binding calculation
   #
   # Launch as: xcrysden --xsf HICOLM.XSF
   #
 END_INFO
 # estrutura final
CRYSTAL
PRIMVEC
      19.00000000       0.00000000       0.00000000
       0.00000000      19.00000000       0.00000000
       0.00000000       0.00000000      19.00000000
PRIMCOORD
    6    1
    6    9.40982983    9.50000000    9.50000000      0.00022571    0.00000000    0.00000000      0.00000000    0.00000000    0.00000000
    6   -8.06350983    9.50000000    9.50000000     -0.00022571    0.00000000   -0.00000000      0.00000000    0.00000000    0.00000000
    1    8.86904019    8.56461582    9.45627470     -0.05161650    0.01635440    0.06232643      0.00000000    0.00000000    0.00000000
    1    8.86904019   -8.56461582   -9.45627470     -0.05161650   -0.01635440   -0.06232643      0.00000000    0.00000000    0.00000000
    1   -7.52272019   -8.56461582    9.45627470      0.05161650   -0.01635440    0.06232643      0.00000000    0.00000000    0.00000000
    1   -7.52272019    8.56461582   -9.45627470      0.05161650    0.01635440   -0.06232643      0.00000000    0.00000000    0.00000000
