 BEGIN_INFO
   #
   # This is a XCRYSDEN-Structure-File
   # aimed for Visualization of Fermi Surface
   #
   # Case: Tight-binding calculation
   #
   # Launch as: xcrysden --xsf HICOLM.XSF
   #
 END_INFO
 # estrutura final
CRYSTAL
PRIMVEC
      19.00000000       0.00000000       0.00000000
       0.00000000      19.00000000       0.00000000
       0.00000000       0.00000000      19.00000000
PRIMCOORD
    6    1
    6   -8.50715373   -8.92437020    9.11068868    -41.93454163   62.79975345    9.10818503     -8.88977494   -3.27834304   -0.68039600
    6   -9.16122401    8.90494705   -9.15176347     77.47592547   11.61874597    7.30670870      4.77599057    2.28782934    7.49793523
    1   -7.43763305   -8.65701465    8.83150724    -32.28435226  -28.80975263   19.84947808     71.62472149   34.33930189  -27.42034356
    1   -9.10699946   -8.03049865    9.47535664     36.40137136  -16.84317035  -28.26437415     16.80445233  -53.06861663    4.01784520
    1    8.98459086    8.44016120   -9.43568633    -42.08134959  -17.04442302  -20.83427776    -23.53608313   48.42656407  -55.37208848
    1   -8.57217876    8.47880010   -8.38172672      2.42294664  -11.72115341   12.83428010    -15.87288126  -17.89420263   -2.46379881
