 BEGIN_INFO
   #
   # This is a XCRYSDEN-Structure-File
   # aimed for Visualization of Fermi Surface
   #
   # Case: Tight-binding calculation
   #
   # Launch as: xcrysden --xsf HICOLM.XSF
   #
 END_INFO
 # estrutura final
CRYSTAL
PRIMVEC
      19.00000000       0.00000000       0.00000000
       0.00000000      19.00000000       0.00000000
       0.00000000       0.00000000      19.00000000
PRIMCOORD
    6    1
    6   -8.93001011    9.49699048    8.74396975      0.00619636   -0.70262351    0.04541304      0.12693887   -1.25278311    0.93011045
    6   -8.72366974   -9.49699050   -8.74396976     -0.00619784    0.70262351   -0.04541284     -0.12691271    1.25278311   -0.93011403
    1   -9.00043132    8.53683456    8.22792829     -0.00044143    0.38897184   -0.00323880     -0.14097957    4.57209794   -1.03255255
    1   -9.00415145   -8.57806593    8.20066547     -0.02191718    0.13968258   -0.16061092     -0.08808807    3.92784008   -0.64489777
    1   -8.65324950   -8.53683457   -8.22792818      0.00044241   -0.38897185    0.00323867      0.14083253   -4.57209786    1.03257263
    1   -8.64952937    8.57806592   -8.20066536      0.02191768   -0.13968258    0.16061086      0.08792342   -3.92784016    0.64492024
