 BEGIN_INFO
   #
   # This is a XCRYSDEN-Structure-File
   # aimed for Visualization of Fermi Surface
   #
   # Case: Tight-binding calculation
   #
   # Launch as: xcrysden --xsf HICOLM.XSF
   #
 END_INFO
 # estrutura final
CRYSTAL
PRIMVEC
      19.00000000       0.00000000       0.00000000
       0.00000000      19.00000000       0.00000000
       0.00000000       0.00000000      19.00000000
PRIMCOORD
    6    1
    6   -9.54659772    9.50000000    9.50000000     -2.05175530    0.00000000    0.00000000      0.00000000    0.00000000    0.00000000
    6   -8.10708228    9.50000000    9.50000000      2.05175530    0.00000000   -0.00000000      0.00000000    0.00000000    0.00000000
    1    8.92525823    8.56250725    9.42903708     -0.20690444   -0.01621573    0.09679839      0.00000000    0.00000000    0.00000000
    1    8.92525823   -8.56250725   -9.42903708     -0.20690444    0.01621573   -0.09679839      0.00000000    0.00000000    0.00000000
    1   -7.57893823   -8.56250725    9.42903708      0.20690444    0.01621573    0.09679839      0.00000000    0.00000000    0.00000000
    1   -7.57893823    8.56250725   -9.42903708      0.20690444   -0.01621573   -0.09679839      0.00000000    0.00000000    0.00000000
