 BEGIN_INFO
   #
   # This is a XCRYSDEN-Structure-File
   # aimed for Visualization of Fermi Surface
   #
   # Case: Tight-binding calculation
   #
   # Launch as: xcrysden --xsf HICOLM.XSF
   #
 END_INFO
 # estrutura final
CRYSTAL
PRIMVEC
      19.00000000       0.00000000       0.00000000
       0.00000000      19.00000000       0.00000000
       0.00000000       0.00000000      19.00000000
PRIMCOORD
    6    1
    6   -9.52517169    9.50097706    9.48608124     -0.66640626    0.04941330   -3.32736053      0.00000000    0.00000000    0.00000000
    6   -8.12850831    9.49902294    9.48608124      0.66640626   -0.04941330   -3.32736053      0.00000000    0.00000000    0.00000000
    1    8.95101225    8.55785727    9.42317862     -3.63701967    0.37626738    6.34173524      0.00000000    0.00000000    0.00000000
    1    8.95155737   -8.55882833   -9.40925986     -3.32552490   -0.64702867   -3.01437471      0.00000000    0.00000000    0.00000000
    1   -7.60469225   -8.55785727    9.42317862      3.63701967   -0.37626738    6.34173524      0.00000000    0.00000000    0.00000000
    1   -7.60523737    8.55882833   -9.40925986      3.32552490    0.64702867   -3.01437471      0.00000000    0.00000000    0.00000000
