 BEGIN_INFO
   #
   # This is a XCRYSDEN-Structure-File
   # aimed for Visualization of Fermi Surface
   #
   # Case: Tight-binding calculation
   #
   # Launch as: xcrysden --xsf HICOLM.XSF
   #
 END_INFO
 # estrutura final
CRYSTAL
PRIMVEC
      19.00000000       0.00000000       0.00000000
       0.00000000      19.00000000       0.00000000
       0.00000000       0.00000000      19.00000000
PRIMCOORD
    6    1
    6   -9.49439579    9.50000000    9.50000000    -70.70546627    0.00000000    0.00000000      0.00000000    0.00000000    0.00000000
    6   -8.15928421    9.50000000    9.50000000     70.70546627    0.00000000   -0.00000000      0.00000000    0.00000000    0.00000000
    1    8.96134722    8.55611266    9.40004898      2.61600951    8.14189614    4.88413974      0.00000000    0.00000000    0.00000000
    1    8.96134722   -8.55611266   -9.40004898      2.61600951   -8.14189614   -4.88413974      0.00000000    0.00000000    0.00000000
    1   -7.61502722   -8.55611266    9.40004898     -2.61600951   -8.14189614    4.88413974      0.00000000    0.00000000    0.00000000
    1   -7.61502722    8.55611266   -9.40004898     -2.61600951    8.14189614   -4.88413974      0.00000000    0.00000000    0.00000000
