 BEGIN_INFO
   #
   # This is a XCRYSDEN-Structure-File
   # aimed for Visualization of Fermi Surface
   #
   # Case: Tight-binding calculation
   #
   # Launch as: xcrysden --xsf HICOLM.XSF
   #
 END_INFO
 # estrutura final
CRYSTAL
PRIMVEC
      19.00000000       0.00000000       0.00000000
       0.00000000      19.00000000       0.00000000
       0.00000000       0.00000000      19.00000000
PRIMCOORD
    6    1
    6   -9.49369449    9.50000000    9.50000000   -144.91802735    0.00000000    0.00000000      0.00000000    0.00000000    0.00000000
    6   -8.15998551    9.50000000    9.50000000    144.91802735    0.00000000   -0.00000000      0.00000000    0.00000000    0.00000000
    1    8.96132043    8.55603158    9.40000089      4.31372837   15.83814852    8.87991082      0.00000000    0.00000000    0.00000000
    1    8.96132043   -8.55603158   -9.40000089      4.31372837  -15.83814852   -8.87991082      0.00000000    0.00000000    0.00000000
    1   -7.61500043   -8.55603158    9.40000089     -4.31372837  -15.83814852    8.87991082      0.00000000    0.00000000    0.00000000
    1   -7.61500043    8.55603158   -9.40000089     -4.31372837   15.83814852   -8.87991082      0.00000000    0.00000000    0.00000000
