 BEGIN_INFO
   #
   # This is a XCRYSDEN-Structure-File
   # aimed for Visualization of Fermi Surface
   #
   # Case: Tight-binding calculation
   #
   # Launch as: xcrysden --xsf HICOLM.XSF
   #
 END_INFO
 # estrutura final
CRYSTAL
PRIMVEC
      19.00000000       0.00000000       0.00000000
       0.00000000      19.00000000       0.00000000
       0.00000000       0.00000000      19.00000000
PRIMCOORD
    6    1
    6    9.41079293    9.50000000    9.50000000      0.00025831   -0.00000000    0.00000000      0.00000000    0.00000000    0.00000000
    6   -8.06447293    9.50000000    9.50000000     -0.00025831    0.00000000   -0.00000000      0.00000000    0.00000000    0.00000000
    1    8.87265678    8.56348287    9.45258989     -0.07796186    0.02370843    0.06769392      0.00000000    0.00000000    0.00000000
    1    8.87265678   -8.56348287   -9.45258989     -0.07796186   -0.02370843   -0.06769392      0.00000000    0.00000000    0.00000000
    1   -7.52633678   -8.56348287    9.45258989      0.07796186   -0.02370843    0.06769392      0.00000000    0.00000000    0.00000000
    1   -7.52633678    8.56348287   -9.45258989      0.07796186    0.02370843   -0.06769392      0.00000000    0.00000000    0.00000000
