 BEGIN_INFO
   #
   # This is a XCRYSDEN-Structure-File
   # aimed for Visualization of Fermi Surface
   #
   # Case: Tight-binding calculation
   #
   # Launch as: xcrysden --xsf HICOLM.XSF
   #
 END_INFO
 # estrutura final
CRYSTAL
PRIMVEC
      19.00000000       0.00000000       0.00000000
       0.00000000      19.00000000       0.00000000
       0.00000000       0.00000000      19.00000000
PRIMCOORD
    6    1
    6    9.40511227    9.50000000    9.50000000      1.84823377    0.00000000    0.00000000      0.49347122   -0.00000000   -0.00000000
    6   -8.05879227   -9.50000000    9.50000000     -1.84823377   -0.00000000    0.00000000     -0.49347122   -0.00000000   -0.00000000
    1    8.85381610    8.56612523   -9.48441240      0.85332073    2.01701069   -0.54475498      2.22041014   -1.78517253    0.09827565
    1    8.85381610   -8.56612523    9.48441240      0.85332073   -2.01701069    0.54475498      2.22041014    1.78517253   -0.09827565
    1   -7.50749610   -8.56612523   -9.48441240     -0.85332073   -2.01701069   -0.54475498     -2.22041014    1.78517253    0.09827565
    1   -7.50749610    8.56612523    9.48441240     -0.85332073    2.01701069    0.54475498     -2.22041014   -1.78517253   -0.09827565
