 BEGIN_INFO
   #
   # This is a XCRYSDEN-Structure-File
   # aimed for Visualization of Fermi Surface
   #
   # Case: Tight-binding calculation
   #
   # Launch as: xcrysden --xsf HICOLM.XSF
   #
 END_INFO
 # estrutura final
CRYSTAL
PRIMVEC
      19.00000000       0.00000000       0.00000000
       0.00000000      19.00000000       0.00000000
       0.00000000       0.00000000      19.00000000
PRIMCOORD
    6    1
    6   -9.49482234    9.49983023   -9.39988330     -2.79061571   -0.40231720    0.29365559     -2.27553213   -0.33617779    0.23385426
    6   -8.15885766   -9.49983023   -9.39988330      2.79061571    0.40231720    0.29365559      2.27553213    0.33617779    0.23385426
    1    8.96228029    8.55824949    9.39860933      0.18151049    0.43281017   -0.29367081      1.88333588    4.37847157   -2.78667840
    1    8.96169148   -8.55667763   -9.39999999      0.06801625   -0.12302235    0.00001522      0.72432523   -1.27131599    0.00005082
    1   -7.61596029   -8.55824949    9.39860933     -0.18151049   -0.43281017   -0.29367081     -1.88333588   -4.37847157   -2.78667840
    1   -7.61537148    8.55667763   -9.39999999     -0.06801625    0.12302235    0.00001522     -0.72432523    1.27131599    0.00005082
