 BEGIN_INFO
   #
   # This is a XCRYSDEN-Structure-File
   # aimed for Visualization of Fermi Surface
   #
   # Case: Tight-binding calculation
   #
   # Launch as: xcrysden --xsf HICOLM.XSF
   #
 END_INFO
 # estrutura final
CRYSTAL
PRIMVEC
      19.00000000       0.00000000       0.00000000
       0.00000000      19.00000000       0.00000000
       0.00000000       0.00000000      19.00000000
PRIMCOORD
  300    1
    8   -4.17873933    2.81144620   -8.54362890      0.60479634    2.24762026    0.21807815      0.00000000    0.00000000    0.00000000
    1   -4.78017540    3.59171655   -8.60975396     -0.03165451    0.19731618    0.24911327      0.00000000    0.00000000    0.00000000
    1   -4.23256250    1.84631951   -7.92973574     -0.24959615   -0.52327622    0.27971791      0.00000000    0.00000000    0.00000000
    8   -3.99405518   -8.29847190    6.01956042   -102.41482035   16.35099234  147.12542369      0.00000000    0.00000000    0.00000000
    1   -3.54704457   -9.27081967    5.59931955      1.84455508   -9.24296470   -5.30158835      0.00000000    0.00000000    0.00000000
    1   -3.54049465   -7.33275558    6.10249481      1.18902549    2.60565423   -1.76249976      0.00000000    0.00000000    0.00000000
    8   -7.11732620   -8.43876956    1.79716754     -0.04112327   -0.75881817   -0.73947861      0.00000000    0.00000000    0.00000000
    1   -7.37959499   -7.91308990    1.05427076      0.00820932    0.17292917    0.18563388      0.00000000    0.00000000    0.00000000
    1   -6.32937466   -8.77608176    2.28765807     -0.07755295    0.23194451    0.20273684      0.00000000    0.00000000    0.00000000
    8    6.28264671   -5.45450852   -3.64324913     -0.77174699   -0.90243739    3.15588451      0.00000000    0.00000000    0.00000000
    1    7.10083015   -5.90011986   -3.47821194      0.02257433    0.10496037    0.02066246      0.00000000    0.00000000    0.00000000
    1    5.53619780   -5.55178781   -4.21683630      0.44617298    0.04904939   -0.02602718      0.00000000    0.00000000    0.00000000
    8    7.03773943    1.40502565    5.53468246      0.05605219   -0.13486823    0.05911356      0.00000000    0.00000000    0.00000000
    1    7.61649478    2.07608764    5.99164462     -0.04764584    0.05690196   -0.04915646      0.00000000    0.00000000    0.00000000
    1    6.41080426    1.74283282    4.68013274     -0.01398664    0.08265279   -0.03279393      0.00000000    0.00000000    0.00000000
    8   -9.22792253    5.82276910    2.42728109     -1.93010124   -2.39611918   -0.29650490      0.00000000    0.00000000    0.00000000
    1   -9.45426937    5.38982376    1.65462260     -0.02624731    0.05639568   -0.04465407      0.00000000    0.00000000    0.00000000
    1   -9.23272051    6.87909423    2.56732652      0.10948768    0.12935885   -0.46212634      0.00000000    0.00000000    0.00000000
    8   -6.00537689    7.96124012   -2.14455796      0.63809554   -0.44985748    0.35555892      0.00000000    0.00000000    0.00000000
    1   -6.47001696    7.16172513   -2.20560876      0.17567701    0.10366467   -0.15250689      0.00000000    0.00000000    0.00000000
    1   -6.39877871    9.02229002   -2.11594578     -0.22083462    0.24590393   -0.22912027      0.00000000    0.00000000    0.00000000
    8    3.01749779    9.46659980   -5.36673666     -0.19205273   -0.00100110   -0.32397517      0.00000000    0.00000000    0.00000000
    1    2.59548799   -8.75398413   -5.31605602      0.06253495   -0.04962603    0.03529198      0.00000000    0.00000000    0.00000000
    1    3.01990097    8.67856975   -4.67310826      0.07000813    0.08235932    0.12011688      0.00000000    0.00000000    0.00000000
    8   -9.06774876   -4.21264821   -7.12569272    257.92754609 -140.27499447  328.17163749      0.00000000    0.00000000    0.00000000
    1    9.14867305   -3.46952043   -6.87715579     -2.21275145    0.44740313   -0.11555825      0.00000000    0.00000000    0.00000000
    1   -9.20969529   -4.95310104   -7.83062988     -0.20548737    0.94895593   -1.34091478      0.00000000    0.00000000    0.00000000
    8    6.01955136   -3.83090249    4.20253540      0.09289868    0.00023172   -0.17377495      0.00000000    0.00000000    0.00000000
    1    5.03593627   -3.54398682    4.37218243      0.00357927   -0.02834094    0.06149943      0.00000000    0.00000000    0.00000000
    1    6.80634869   -3.47809087    4.13512008     -0.06421841    0.00885728    0.07975469      0.00000000    0.00000000    0.00000000
    8    4.47949839   -8.63789248   -8.06047430      0.57842505   -0.10555404    0.12993456      0.00000000    0.00000000    0.00000000
    1    3.64186494   -9.36440714   -8.00233635     -0.02759347   -0.06085151    0.12376445      0.00000000    0.00000000    0.00000000
    1    5.04955423   -8.36816024   -7.44337685     -0.05428602   -0.24148599    0.00412095      0.00000000    0.00000000    0.00000000
    8   -9.21788216    2.19450950    2.12672728     -0.17321169   -0.12857443   -0.03802164      0.00000000    0.00000000    0.00000000
    1    9.53084839    3.21567413    2.20904867      0.06621200    0.11652150    0.10211034      0.00000000    0.00000000    0.00000000
    1    9.55649557    1.27036176    2.14426532      0.04451405    0.05307016   -0.03382740      0.00000000    0.00000000    0.00000000
    8    4.49583634   -7.70421882   -2.40863999    -27.80816272  150.18654810   51.01076840      0.00000000    0.00000000    0.00000000
    1    5.42801780   -8.15195878   -2.67364323     -0.23490125   -1.10689671   -0.66587571      0.00000000    0.00000000    0.00000000
    1    3.81695458   -7.49361832   -3.01324848      0.28114914   -0.09592640   -0.20596269      0.00000000    0.00000000    0.00000000
    8    0.92774245    5.36193889    6.72539151     -0.01560467    0.05262202   -0.00692785      0.00000000    0.00000000    0.00000000
    1    0.11276722    4.70453996    6.63761315      0.01697063   -0.05941651   -0.02207726      0.00000000    0.00000000    0.00000000
    1    1.77850762    5.03368380    7.08535297     -0.01079462   -0.00707128    0.00074463      0.00000000    0.00000000    0.00000000
    8    5.70155357    9.40286652    3.52492681      0.08775520   -0.37809738    0.01132979      0.00000000    0.00000000    0.00000000
    1    4.65408864   -9.34749485    3.74956212     -0.10059404    0.21263688    0.02361164      0.00000000    0.00000000    0.00000000
    1    6.34367528   -8.79624121    3.25965893     -0.07416493    0.11424876   -0.00697203      0.00000000    0.00000000    0.00000000
    8    1.10228917    9.38718658    0.91015633      0.02025658   -0.08200887   -0.06986381      0.00000000    0.00000000    0.00000000
    1    0.94941084   -8.45635987    0.97888675     -0.02302202    0.05843212    0.01788319      0.00000000    0.00000000    0.00000000
    1    0.52774580    8.75001622    0.75208222      0.00571622    0.02921574    0.04173537      0.00000000    0.00000000    0.00000000
    8   -7.85133747    2.62788249   -3.65345991   9109.87609371-1940.44254409-1089.83203934      0.00000000    0.00000000    0.00000000
    1   -8.35484185    3.38165593   -3.01057534     -4.19140751   -0.09524639    0.49682317      0.00000000    0.00000000    0.00000000
    1   -7.01026327    2.41996395   -4.12576517      2.52138811    1.16460716   -2.41332805      0.00000000    0.00000000    0.00000000
    8   -1.56919187   -5.42183655   -6.40912776     -0.20842931   -0.08249381   -0.11747248      0.00000000    0.00000000    0.00000000
    1   -0.88200953   -6.24198207   -6.49378063      0.02969152   -0.01256720   -0.06349366      0.00000000    0.00000000    0.00000000
    1   -1.96975905   -4.84704358   -7.03036748      0.29556826    0.00479935   -0.17461149      0.00000000    0.00000000    0.00000000
    8    6.48930944   -4.55613456    8.01856093      0.18167177    0.04756635    0.29168268      0.00000000    0.00000000    0.00000000
    1    6.69070340   -3.80999384    8.47146256     -0.16085584    0.03829799   -0.17937087      0.00000000    0.00000000    0.00000000
    1    6.42526937   -5.60137958    7.86919653     -0.03430289   -0.08467701   -0.11094792      0.00000000    0.00000000    0.00000000
    8   -8.45879675   -9.23144915   -3.71459207      6.51618531   41.96255167  -27.75553937      0.00000000    0.00000000    0.00000000
    1   -7.85736417   -9.10137125   -4.44659845      0.08885343    0.21976614   -0.03216722      0.00000000    0.00000000    0.00000000
    1   -9.31253506    9.33703317   -3.45771520      0.53378448   -0.26408217    0.23583468      0.00000000    0.00000000    0.00000000
    8   -6.07345563   -3.05724749   -7.94156411     49.60549317   41.40571439  -18.28941360      0.00000000    0.00000000    0.00000000
    1   -6.62466389   -4.07803795   -7.84803595     -0.24140888   -3.76974841    0.00761604      0.00000000    0.00000000    0.00000000
    1   -5.05029370   -2.87215181   -8.03445283      1.55347514    0.62791948   -0.48507633      0.00000000    0.00000000    0.00000000
    8    1.90089890   -6.20387649   -9.48094245  ************** 9952.29701312**************      0.00000000    0.00000000    0.00000000
    1    1.95005136   -7.23106678   -9.31905916      2.23035857    0.11973358    1.93071589      0.00000000    0.00000000    0.00000000
    1    1.24874497   -5.44583230   -9.45531384     -0.91367406    0.31271940    0.20072896      0.00000000    0.00000000    0.00000000
    8   -7.68996559    7.61530047    2.90631324      1.43009584    2.15785857    0.51646445      0.00000000    0.00000000    0.00000000
    1   -7.71985572    8.05395573    1.96194382      0.13829909    0.24051356   -0.08612824      0.00000000    0.00000000    0.00000000
    1   -8.36392903    7.20163168    3.62515233      0.29818116   -0.27897150    0.39197735      0.00000000    0.00000000    0.00000000
    8   -9.16654250    1.78499081   -7.28276333     -0.06669092   -0.21360758   -0.28441403      0.00000000    0.00000000    0.00000000
    1    9.48587836    0.96826309   -6.94835017      0.06992284    0.06164198    0.21216646      0.00000000    0.00000000    0.00000000
    1   -9.45493676    2.75239944   -7.18866301     -0.00614925    0.12754453   -0.04802821      0.00000000    0.00000000    0.00000000
    8    7.19513322    0.68004590    0.17017264     -0.09236269    0.04641905    0.13711768      0.00000000    0.00000000    0.00000000
    1    6.39183451    0.74068265   -0.35693427      0.08753890   -0.04799845   -0.03075167      0.00000000    0.00000000    0.00000000
    1    7.91762262    1.25761911    0.48347241      0.06562508    0.06548262   -0.07496651      0.00000000    0.00000000    0.00000000
    8    1.75739642   -1.48103233   -7.57031902      0.02681360    0.01443686   -0.00170601      0.00000000    0.00000000    0.00000000
    1    1.00695686   -2.13366855   -7.74138218     -0.01021028    0.01329919    0.02715055      0.00000000    0.00000000    0.00000000
    1    2.67083562   -1.69202867   -7.27175774     -0.01326258   -0.03747608   -0.00210406      0.00000000    0.00000000    0.00000000
    8    2.73309891   -6.73303552   -8.76335657  15630.42688561-9942.1174462013478.98824682      0.00000000    0.00000000    0.00000000
    1    3.29059022   -6.67679182   -8.13443871      0.04169163    0.06526038   -0.31951044      0.00000000    0.00000000    0.00000000
    1    2.27344754   -6.06807144    9.50851019    -27.92974631  -10.25102531    0.54298841      0.00000000    0.00000000    0.00000000
    8    2.69889932   -5.24021768   -4.42540709      0.09726076   -0.17876611   -0.18642858      0.00000000    0.00000000    0.00000000
    1    1.94176900   -5.85916076   -4.36836359     -0.08923104    0.10424462    0.07410613      0.00000000    0.00000000    0.00000000
    1    3.61861388   -5.03260236   -4.21519700     -0.06813049    0.14377868    0.20109392      0.00000000    0.00000000    0.00000000
    8   -6.24575861    2.62314268    3.34771183     -0.45746833   -0.09492107   -1.43239109      0.00000000    0.00000000    0.00000000
    1   -5.75687073    3.38437104    3.76477251     -0.24344453   -0.10525079    0.13867019      0.00000000    0.00000000    0.00000000
    1   -7.07633886    2.19224029    3.68678758     -0.08406626    0.04554812   -0.09640284      0.00000000    0.00000000    0.00000000
    8   -4.51039821   -6.51689811   -5.93220379      0.71484227   -1.51051946   -0.17967826      0.00000000    0.00000000    0.00000000
    1   -5.51924535   -6.11065610   -5.81021394      0.05977569    0.18743276    0.15347188      0.00000000    0.00000000    0.00000000
    1   -3.67258319   -6.07039064   -5.84468773      0.06653152   -0.69986555    0.28937839      0.00000000    0.00000000    0.00000000
    8   -6.66226360    6.10967812   -6.60051818   -171.46206106 -407.87928428  100.99125102      0.00000000    0.00000000    0.00000000
    1   -5.76492200    5.86838203   -6.34350004      0.00291143    0.59573842    0.02930506      0.00000000    0.00000000    0.00000000
    1   -7.48752508    5.94396562   -6.79710395      0.18620580    0.21618608   -0.01697877      0.00000000    0.00000000    0.00000000
    8   -1.96080090   -1.57426493   -3.54475616      0.25300383    0.07977027   -0.04018456      0.00000000    0.00000000    0.00000000
    1   -2.18737603   -0.58257596   -3.39582727      0.09685867    0.07889443    0.53205708      0.00000000    0.00000000    0.00000000
    1   -1.20411083   -2.25314357   -3.55307995      0.07754761   -0.13586289    0.05086975      0.00000000    0.00000000    0.00000000
    8   -4.10556255   -6.61002947   -8.27589745     59.01579512   11.84045065   69.37498332      0.00000000    0.00000000    0.00000000
    1   -5.02764809   -7.03477127   -8.73629396     -1.19826981    1.16267877   -3.31679389      0.00000000    0.00000000    0.00000000
    1   -4.00076945   -5.96821945   -7.70700851     -0.74564136   -0.47758336    0.10665067      0.00000000    0.00000000    0.00000000
    8    4.79273399   -9.37411015   -2.96150455     27.76640255 -150.42200832  -50.30310501      0.00000000    0.00000000    0.00000000
    1    5.16528755    8.88210151   -3.26467527      0.01443818   -0.07349831    0.07323621      0.00000000    0.00000000    0.00000000
    1    4.22656439   -8.99963009   -2.11202741      0.01225038    1.42897900    0.24015667      0.00000000    0.00000000    0.00000000
    8   -5.20156569   -5.78162456   -3.79112031    161.69183841 -227.56372389  -47.73591234      0.00000000    0.00000000    0.00000000
    1   -4.20432805   -5.49466863   -3.58502967      1.26628475    0.47503122   -0.10160043      0.00000000    0.00000000    0.00000000
    1   -5.93318195   -6.41930498   -3.39945760     -0.10599239   -2.23407629    2.90831890      0.00000000    0.00000000    0.00000000
    8   -6.92970005   -3.68516874    2.97653865    280.33520298 -164.01863767  -66.65309442      0.00000000    0.00000000    0.00000000
    1   -7.19404705   -3.88071100    4.01414791      1.39540232   -1.14948056    2.38281894      0.00000000    0.00000000    0.00000000
    1   -7.54162386   -3.66896998    2.17040581     -0.59094548    0.15990075    0.39745440      0.00000000    0.00000000    0.00000000
    8    7.47291562   -3.46274928   -1.17993670      0.18761627    0.04344714    0.35261801      0.00000000    0.00000000    0.00000000
    1    6.52992030   -4.01861115   -1.26618876     -0.15444646   -0.14721318   -0.25299290      0.00000000    0.00000000    0.00000000
    1    8.30656895   -3.68203482   -1.31020091     -0.22799209    0.01101716   -0.01270348      0.00000000    0.00000000    0.00000000
    8   -2.35557957   -8.17878039   -4.11003982  -1246.44827513 3179.96333200-2363.89030515      0.00000000    0.00000000    0.00000000
    1   -1.94404427   -7.93575403   -4.81157247     -0.27054848   -0.29654939    0.51458291      0.00000000    0.00000000    0.00000000
    1   -2.22699378   -9.13390146   -3.51279915     30.67445133   -9.38777372   19.16386685      0.00000000    0.00000000    0.00000000
    8   -3.56689871   -8.49834266   -1.36332219      3.26762300  -10.38848733  -17.26348695      0.00000000    0.00000000    0.00000000
    1   -3.40792283   -7.54271492   -0.74088312     -0.03459701    0.35872790    1.51182868      0.00000000    0.00000000    0.00000000
    1   -3.40902551   -9.32061752   -1.05023401      0.05369601    0.22211245    0.04306223      0.00000000    0.00000000    0.00000000
    8   -8.65873066    8.15922391   -2.63804153     -6.50368304  -42.40651922   28.29632102      0.00000000    0.00000000    0.00000000
    1   -8.13537408    7.75186882   -2.09091250     -0.01521484    0.18715964   -0.04131488      0.00000000    0.00000000    0.00000000
    1   -9.38944760    8.02721940   -3.30259859      0.15590515   -0.55284500   -0.03843281      0.00000000    0.00000000    0.00000000
    8   -0.04813283    2.63010297    2.91774799     -0.02290182    0.02335289    0.03626108      0.00000000    0.00000000    0.00000000
    1    0.90200073    2.43088914    2.80990955     -0.00356882    0.00131301   -0.00008192      0.00000000    0.00000000    0.00000000
    1   -0.69545950    2.78547335    2.16282713      0.01211957   -0.01831143   -0.02453420      0.00000000    0.00000000    0.00000000
    8    1.06753912    1.19154261   -2.25042718      0.00572261    0.06160127   -0.06924725      0.00000000    0.00000000    0.00000000
    1    1.32709614    0.10978696   -1.88536682     -0.00140132   -0.02390381    0.01720816      0.00000000    0.00000000    0.00000000
    1    1.44401436    1.76288378   -2.72135026     -0.02654000   -0.03518416    0.03704885      0.00000000    0.00000000    0.00000000
    8    4.87460595    3.70321738   -3.74240598      0.21760353    0.04442765   -0.16152635      0.00000000    0.00000000    0.00000000
    1    4.65626439    2.62594750   -3.81610322     -0.06021774   -0.08832526    0.04826308      0.00000000    0.00000000    0.00000000
    1    4.11710288    4.51942744   -3.69962959     -0.10403702    0.03548758    0.02954904      0.00000000    0.00000000    0.00000000
    8   -7.28216296   -6.78769186   -4.02505906     -2.77639602   -2.80799365   -0.69079585      0.00000000    0.00000000    0.00000000
    1   -8.15250698   -6.43635945   -3.54359686     -0.69893131    0.55257791    0.35929212      0.00000000    0.00000000    0.00000000
    1   -6.30074961   -6.30716910   -4.10689010      0.02263939    1.27223643   -2.72801288      0.00000000    0.00000000    0.00000000
    8   -7.14873079   -9.10400400   -9.12227392   -114.69623208   28.08540900   35.76100936      0.00000000    0.00000000    0.00000000
    1   -6.63506216   -8.22188595    9.44361492      0.23258640    0.26771828   -0.12382333      0.00000000    0.00000000    0.00000000
    1   -7.93939863   -9.34901487   -8.60975414     -0.14389140    0.18436670    0.23687602      0.00000000    0.00000000    0.00000000
    8   -7.82010577    2.77410956    9.08860399      0.20146657    0.54726014   -0.20449506      0.00000000    0.00000000    0.00000000
    1   -8.21252015    1.70524056    9.30498689     -0.07304838   -0.10768155    0.19443033      0.00000000    0.00000000    0.00000000
    1   -7.78757211    3.25425536    8.34230330     -0.07344636   -0.12741836   -0.02581506      0.00000000    0.00000000    0.00000000
    8   -7.48377242   -6.50672193    3.78828741     70.41573712   20.41527765 -143.19137537      0.00000000    0.00000000    0.00000000
    1   -7.54627920   -6.95693500    4.81873794     -2.48951848    1.47379954    3.00748295      0.00000000    0.00000000    0.00000000
    1   -8.11240347   -5.89237978    3.44743272      0.41726000    0.29310483    0.26888700      0.00000000    0.00000000    0.00000000
    8   -3.47997896   -4.15830827   -4.76863695      0.86805400    0.75855483   -0.35884559      0.00000000    0.00000000    0.00000000
    1   -3.47859224   -3.19340480   -4.50988493      0.09161216    0.11322256    0.31450861      0.00000000    0.00000000    0.00000000
    1   -3.49827277   -4.76267365   -5.45245083      0.06129679    0.37734015    0.28792529      0.00000000    0.00000000    0.00000000
    8   -3.41687993   -6.60079327    8.69603110     20.52478810    3.65819834  -19.65631601      0.00000000    0.00000000    0.00000000
    1   -4.54696291   -6.69927221    8.78825680     -1.61778310   -1.21695944    1.01735253      0.00000000    0.00000000    0.00000000
    1   -2.83087374   -7.10453770    8.33689935     -0.36260364    0.09701122   -0.00511813      0.00000000    0.00000000    0.00000000
    8    5.64733250    6.09233754    4.05437761      0.05334882   -0.39002430    0.04573528      0.00000000    0.00000000    0.00000000
    1    5.22369883    6.95144730    3.44108914      0.08239875    0.32836868   -0.00051087      0.00000000    0.00000000    0.00000000
    1    5.61672214    6.09422417    5.01379778     -0.02646282    0.14375195   -0.02886661      0.00000000    0.00000000    0.00000000
    8   -5.91074919    0.98707756   -8.68007087     -0.65264762    0.22641260    0.12892130      0.00000000    0.00000000    0.00000000
    1   -5.79814228    2.08115620   -8.95084424     -0.07476477    0.29655361   -0.11121559      0.00000000    0.00000000    0.00000000
    1   -6.60062209    0.35345436   -8.39163889     -0.19402015   -0.04116316    0.26001012      0.00000000    0.00000000    0.00000000
    8   -5.46322795    9.50731264    9.30441641     75.83461158  233.72279917 -383.90861830      0.00000000    0.00000000    0.00000000
    1   -4.96569991   -9.08270679   -8.96696242      1.05886345   -2.37586432   -1.15878891      0.00000000    0.00000000    0.00000000
    1   -6.12850860   -9.41617622    8.68575578     -0.37170018   -0.68417563    0.56768231      0.00000000    0.00000000    0.00000000
    8   -6.13791960   -2.07826635    4.51512860      8.66141456   20.89696081   -1.64662880      0.00000000    0.00000000    0.00000000
    1   -6.28120972   -1.13070837    4.39550272      0.21779574    0.22328590    0.02114571      0.00000000    0.00000000    0.00000000
    1   -5.32232234   -2.69294401    4.57617692      0.45515638    0.33850485   -0.65929969      0.00000000    0.00000000    0.00000000
    8   -2.07110231   -1.60141686    7.78478504     -0.00438255   -0.28926145    0.21081051      0.00000000    0.00000000    0.00000000
    1   -1.95112419   -0.60066886    8.23587457     -0.04857954    0.30490223   -0.09112587      0.00000000    0.00000000    0.00000000
    1   -1.49125009   -2.09987650    7.18524060     -0.04012502    0.08440802   -0.06993414      0.00000000    0.00000000    0.00000000
    8    6.32316990    6.91600708   -8.84583227     -0.63130134    0.33876599    0.02579210      0.00000000    0.00000000    0.00000000
    1    7.33217953    6.44067993   -8.58948103      0.39510494   -0.13478604   -0.23643670      0.00000000    0.00000000    0.00000000
    1    5.51384585    6.75731280   -8.59755205      0.12687483   -0.09564611    0.02353363      0.00000000    0.00000000    0.00000000
    8    8.23156655   -8.59363190   -4.25539034     -2.34954012    0.10904237   -0.50187883      0.00000000    0.00000000    0.00000000
    1    9.03848759   -8.38002232   -3.47643495      0.68142422    0.42910831    0.00954027      0.00000000    0.00000000    0.00000000
    1    7.84394618   -7.94126879   -4.87881257      0.03700417    0.04683467    0.01037677      0.00000000    0.00000000    0.00000000
    8    8.50291697   -4.48053656   -7.83617170   -506.09646200  -95.22702408 -252.28078540      0.00000000    0.00000000    0.00000000
    1    8.07787462   -4.23477558   -8.73113107     -0.19743061    0.03244053   -0.22273375      0.00000000    0.00000000    0.00000000
    1    8.97623680   -5.25127106   -7.29045255     -0.32474966    0.00391306    1.06355260      0.00000000    0.00000000    0.00000000
    8   -3.43793582   -6.83046863    5.17971789     52.10634661  136.00689164  -75.37878302      0.00000000    0.00000000    0.00000000
    1   -3.81790518   -7.92036893    5.26722193     -2.00358499   -3.36463837    4.00747502      0.00000000    0.00000000    0.00000000
    1   -3.96855610   -5.99157009    5.16904143     -0.32674031    0.09207712   -0.22036021      0.00000000    0.00000000    0.00000000
    8   -5.36013831    8.49978733   -8.38424527   -273.49709980 -332.72791337  235.71908944      0.00000000    0.00000000    0.00000000
    1   -5.98967978    7.92475286   -8.11898594     -0.61374097    1.53710705    1.18126350      0.00000000    0.00000000    0.00000000
    1   -5.17973780   -9.54965340   -8.16557446      0.57853591   -2.32142553    3.01288621      0.00000000    0.00000000    0.00000000
    8   -3.30578954   -6.12155970    0.84507187    291.21259504  574.69055040  180.54231401      0.00000000    0.00000000    0.00000000
    1   -4.13160636   -6.86082653    0.73893729      2.05042058   -6.66624421   -2.76366515      0.00000000    0.00000000    0.00000000
    1   -3.18015665   -5.33023401    1.00073861     -0.10004929   -0.32116065    0.04299174      0.00000000    0.00000000    0.00000000
    8   -8.37316516   -2.82969954    3.16970223   -283.47758776  166.55359959   36.85720173      0.00000000    0.00000000    0.00000000
    1   -7.33406306   -2.49233019    3.27955690      1.57917908   -1.25774384   -0.14685912      0.00000000    0.00000000    0.00000000
    1   -9.19115599   -2.56767849    3.24008745      0.07718617    0.14984368   -0.10921033      0.00000000    0.00000000    0.00000000
