 BEGIN_INFO
   #
   # This is a XCRYSDEN-Structure-File
   # aimed for Visualization of Fermi Surface
   #
   # Case: Tight-binding calculation
   #
   # Launch as: xcrysden --xsf HICOLM.XSF
   #
 END_INFO
 # estrutura final
CRYSTAL
PRIMVEC
      19.00000000       0.00000000       0.00000000
       0.00000000      19.00000000       0.00000000
       0.00000000       0.00000000      19.00000000
PRIMCOORD
  300    1
    8   -3.59572603    3.40668547   -9.82979638      0.00657023    1.05959152   -1.04770380      0.00000000    0.00000000    0.00000000
    1   -5.69168724    2.52573888   -7.52034370     -0.54535703   -0.83298951    0.50900581      0.00000000    0.00000000    0.00000000
    1   -4.91684512    1.12180412   -8.17062544  ******************************************      0.00000000    0.00000000    0.00000000
    8   -4.41213470   -7.93766785    5.84942388  ******************************************      0.00000000    0.00000000    0.00000000
    1   -2.79490003   -9.70981258    5.21763935      0.95794097    0.07396680   -0.11184205      0.00000000    0.00000000    0.00000000
    1   -2.82014677   -6.81326532    5.52982392  ******************************************      0.00000000    0.00000000    0.00000000
    8   -7.58844693   -9.76771412    1.59237084     -0.46787067   -0.56364611   -1.06507941      0.00000000    0.00000000    0.00000000
    1   -7.08162919   -7.07466027    2.37121723  ******************************************      0.00000000    0.00000000    0.00000000
    1   -6.93954453   -7.26717787    2.51561885    -32.45292005   44.40882297  -32.54947686      0.00000000    0.00000000    0.00000000
    8    6.49564211   -4.87426601   -2.36064731  ******************************************      0.00000000    0.00000000    0.00000000
    1    6.30689065   -5.32789285   -5.05309433   -310.58648730  357.33603095 -540.48064008      0.00000000    0.00000000    0.00000000
    1    6.27081699   -5.28667390   -5.11512189  ******************************************      0.00000000    0.00000000    0.00000000
    8    7.37037630   -0.29553417    5.65780084     -0.26137668   -1.14611855   -0.62296402      0.00000000    0.00000000    0.00000000
    1    6.70920156    3.39665209    5.06503742     -0.80832980    1.58660279   -1.37275234      0.00000000    0.00000000    0.00000000
    1    6.21364428    3.46731874    4.39914683      0.19605491    4.93940041   -1.69883318      0.00000000    0.00000000    0.00000000
    8   -8.70057889    6.11901109    3.24506775  ******************************************      0.00000000    0.00000000    0.00000000
    1  -10.49529066    4.49085797    1.15067924     -0.02234272   -0.13284527   -0.09987607      0.00000000    0.00000000    0.00000000
    1  -10.71471006    6.12539295    1.60928172     -0.28807981   -0.17617863   -0.27090041      0.00000000    0.00000000    0.00000000
    8   -4.60701239    6.89614476   -2.52590864  ******************************************      0.00000000    0.00000000    0.00000000
    1   -7.63581964    8.15073363   -2.39766037  ******************************************      0.00000000    0.00000000    0.00000000
    1   -7.63102961    8.16995410   -2.39571762  -3063.31387137**************-1226.94055888      0.00000000    0.00000000    0.00000000
    8    3.65346363    9.70281504   -6.67461617     -0.28976856   -0.23313474    0.85012876      0.00000000    0.00000000    0.00000000
    1    2.86175646   -9.16810335   -3.61033195      0.13294545    0.04967423    0.57241682      0.00000000    0.00000000    0.00000000
    1    3.87020391    9.22230603   -3.43393426     -0.16577730    0.23360797    0.53820855      0.00000000    0.00000000    0.00000000
    8   -8.73963933   -4.16897270   -6.97484904  69279.75191890****************************      0.00000000    0.00000000    0.00000000
    1    8.30127362   -3.91130004   -7.47927001  ******************************************      0.00000000    0.00000000    0.00000000
    1  -10.64323405   -3.94343537   -7.52182481   -552.31247573  343.38432514  428.09860571      0.00000000    0.00000000    0.00000000
    8    6.69614651   -5.06665444    4.83706108     -0.24334673   -0.74637963    1.49179841      0.00000000    0.00000000    0.00000000
