 BEGIN_INFO
   #
   # This is a XCRYSDEN-Structure-File
   # aimed for Visualization of Fermi Surface
   #
   # Case: Tight-binding calculation
   #
   # Launch as: xcrysden --xsf HICOLM.XSF
   #
 END_INFO
 # estrutura final
CRYSTAL
PRIMVEC
      19.00000000       0.00000000       0.00000000
       0.00000000      19.00000000       0.00000000
       0.00000000       0.00000000      19.00000000
PRIMCOORD
    9    1
    8   -8.46314873    9.43237509    9.41066158    -10.44127347   -2.54776627   14.10869606      3.67984160   -2.75362127    2.98290315
    6   -7.11149015   -9.48837526    9.36519104     32.32854106    5.96651464  -28.27713480     -4.90928656    5.42632575   -1.65882772
    8   -6.45751541   -8.98344211   -8.71686632     -7.14234643   -9.70466683    1.18179883     -0.87977439    0.08179901    0.34198592
    6   -6.41083052    8.85495727    8.29626908    -38.86612140    9.03287692   31.09266262     -3.56965181    0.67464513   -2.76579921
    6   -5.05551268    8.55355697    8.47511330    -24.51527523    4.32607887  -15.15968935      0.68134979   -2.43694747   -1.31081882
    1   -8.81723847   -9.37332461   -8.71162075      1.43351834    4.67426219   -7.99096114     -3.43892048   17.78236836  -10.16125289
    1   -7.06349886    8.38988663    7.54691587     20.45148153   -4.14915133    2.43590442     12.73362797   -8.33965809    1.40534459
    1   -4.48885974    9.08768063    9.18919687      9.71506213    5.35989213   14.34956845     19.21686347   -5.28282056   47.74693104
    1   -4.75228729    7.65084448    8.02926792     17.03641347  -12.95804031  -11.74084509     19.95867708   -5.40989767  -23.42413585
