 BEGIN_INFO
   #
   # This is a XCRYSDEN-Structure-File
   # aimed for Visualization of Fermi Surface
   #
   # Case: Tight-binding calculation
   #
   # Launch as: xcrysden --xsf HICOLM.XSF
   #
 END_INFO
 # estrutura final
CRYSTAL
PRIMVEC
      19.00000000       0.00000000       0.00000000
       0.00000000      19.00000000       0.00000000
       0.00000000       0.00000000      19.00000000
PRIMCOORD
    9    1
    8   -8.43935012    9.48967002    9.42172002     -1.17009125    0.19965218    0.23901462      0.00000000    0.00000000    0.00000000
    6   -7.09080012    9.46995002    9.41564002      1.25186841   -1.71803204   -2.02702605      0.00000000    0.00000000    0.00000000
    8   -6.45685012   -8.88283998   -8.75598998      0.00506930    0.06230357    0.04961044      0.00000000    0.00000000    0.00000000
    6   -6.44056012    8.62113002    8.40174002     -2.66798371    1.81648467    2.18702563      0.00000000    0.00000000    0.00000000
    6   -5.09256012    8.58264002    8.39462002      2.30721589    0.04671553    0.12296372      0.00000000    0.00000000    0.00000000
    1   -8.88077012   -8.97173998   -8.90250998      0.55815871   -0.16839891   -0.21455389      0.00000000    0.00000000    0.00000000
    1   -7.00754012    8.02436002    7.70606002     -0.12785240    0.01231981   -0.04115880      0.00000000    0.00000000    0.00000000
    1   -4.50904012    9.16256002    9.11065002     -0.18808185   -0.15460094   -0.20409491      0.00000000    0.00000000    0.00000000
    1   -4.56369012    7.96990002    7.68626002      0.03169690   -0.09644387   -0.11178076      0.00000000    0.00000000    0.00000000
