 BEGIN_INFO
   #
   # This is a XCRYSDEN-Structure-File
   # aimed for Visualization of Fermi Surface
   #
   # Case: Tight-binding calculation
   #
   # Launch as: xcrysden --xsf HICOLM.XSF
   #
 END_INFO
 # estrutura final
CRYSTAL
PRIMVEC
      19.00000000       0.00000000       0.00000000
       0.00000000      19.00000000       0.00000000
       0.00000000       0.00000000      19.00000000
PRIMCOORD
    9    1
    8   -8.46852762    9.48231697    9.41273012     -2.70392022   -0.83502607   -0.94778284      0.00000000    0.00000000    0.00000000
    6   -7.10389339    9.44875197    9.39422264     -2.86742852   -1.46769981   -1.12619117      0.00000000    0.00000000    0.00000000
    8   -6.46475281   -8.89836418   -8.77907836     -1.26864984   -1.85741900   -2.92901906      0.00000000    0.00000000    0.00000000
    6   -6.45659523    8.64009821    8.43188562      0.58827961    0.14303188    1.23188078      0.00000000    0.00000000    0.00000000
    6   -5.06121843    8.58708735    8.40169533      1.34756842    0.32255767    0.75045265      0.00000000    0.00000000    0.00000000
    1   -8.85058878   -8.96825921   -8.89864639      3.32116224    0.79089787    0.85854989      0.00000000    0.00000000    0.00000000
    1   -7.02179330    8.04553814    7.72440641     -1.52467467    2.61494683    2.09714935      0.00000000    0.00000000    0.00000000
    1   -4.49445018    9.16557703    9.11323233      2.82241169    0.38481994    0.30475401      0.00000000    0.00000000    0.00000000
    1   -4.55934025    7.96288371    7.67774230      0.28525128   -0.09610931   -0.23979361      0.00000000    0.00000000    0.00000000
