 BEGIN_INFO
   #
   # This is a XCRYSDEN-Structure-File
   # aimed for Visualization of Fermi Surface
   #
   # Case: Tight-binding calculation
   #
   # Launch as: xcrysden --xsf HICOLM.XSF
   #
 END_INFO
 # estrutura final
CRYSTAL
PRIMVEC
      19.00000000       0.00000000       0.00000000
       0.00000000      19.00000000       0.00000000
       0.00000000       0.00000000      19.00000000
PRIMCOORD
    9    1
    8   -8.49281514    9.49566633    9.42771178     -4.40519245    0.82747900    0.88003739      0.00000000    0.00000000    0.00000000
    6   -7.12024896    9.45515696    9.40238064     -3.34993748   -0.78704251   -0.29078808      0.00000000    0.00000000    0.00000000
    8   -6.43092031   -8.90616627   -8.78858337      0.97964147   -2.44494284   -3.59956262      0.00000000    0.00000000    0.00000000
    6   -6.45590987    8.64562618    8.43838300      1.05817371    0.75669328    1.87896314      0.00000000    0.00000000    0.00000000
    6   -5.05432161    8.58720139    8.40153954      1.94540303    0.17276476    0.46870192      0.00000000    0.00000000    0.00000000
    1   -8.91650671   -8.96622618   -8.89702908     -4.29746069    1.07361956    1.15374798      0.00000000    0.00000000    0.00000000
    1   -7.00552537    8.04094170    7.71962180      0.87613906    2.23539228    1.85620859      0.00000000    0.00000000    0.00000000
    1   -4.44707389    9.15230655    9.09848166      6.77376639   -1.52360850   -1.87062062      0.00000000    0.00000000    0.00000000
    1   -4.55783815    7.96112334    7.67568403      0.41946695   -0.31035503   -0.47668770      0.00000000    0.00000000    0.00000000
