 BEGIN_INFO
   #
   # This is a XCRYSDEN-Structure-File
   # aimed for Visualization of Fermi Surface
   #
   # Case: Tight-binding calculation
   #
   # Launch as: xcrysden --xsf HICOLM.XSF
   #
 END_INFO
 # estrutura final
CRYSTAL
PRIMVEC
      19.00000000       0.00000000       0.00000000
       0.00000000      19.00000000       0.00000000
       0.00000000       0.00000000      19.00000000
PRIMCOORD
    9    1
    8   -8.43935270    9.48967046    9.42172055    -26.98363167    4.60420577    5.51194839      0.00000000    0.00000000    0.00000000
    6   -7.09080270    9.46995046    9.41564055     28.44369892  -39.58464917  -46.72309383      0.00000000    0.00000000    0.00000000
    8   -6.45685270   -8.88283954   -8.75598945      0.34423593    1.34485025    1.04193002      0.00000000    0.00000000    0.00000000
    6   -6.44056270    8.62113046    8.40174055    -61.32825623   41.94701936   50.51500864      0.00000000    0.00000000    0.00000000
    6   -5.09256270    8.58264046    8.39462055     53.27612981    1.07494342    2.83576528      0.00000000    0.00000000    0.00000000
    1   -8.88077270   -8.97173954   -8.90250945     12.87177313   -3.88347000   -4.94785621      0.00000000    0.00000000    0.00000000
    1   -7.00754270    8.02436046    7.70606055     -2.94842128    0.28410879   -0.94916869      0.00000000    0.00000000    0.00000000
    1   -4.50904270    9.16256046    9.11065055     -4.37117535   -3.55080843   -4.69083480      0.00000000    0.00000000    0.00000000
    1   -4.56369270    7.96990046    7.68626055      0.69564674   -2.23619999   -2.59369880      0.00000000    0.00000000    0.00000000
