 BEGIN_INFO
   #
   # This is a XCRYSDEN-Structure-File
   # aimed for Visualization of Fermi Surface
   #
   # Case: Tight-binding calculation
   #
   # Launch as: xcrysden --xsf HICOLM.XSF
   #
 END_INFO
 # estrutura final
CRYSTAL
PRIMVEC
      19.00000000       0.00000000       0.00000000
       0.00000000      19.00000000       0.00000000
       0.00000000       0.00000000      19.00000000
PRIMCOORD
    9    1
    8   -8.48888461    9.43914972    9.40580279     20.26481437    5.85862711   39.74110635      6.43698260    3.96463279    1.52100839
    6   -7.08924622    9.37210164    9.46023142    -34.86488414   42.75098606   19.41292544     -2.32753956   -7.97288809   -3.32657257
    8   -6.45324645   -8.86955506   -8.78224622    -10.62160189  -17.09568745   -6.55827671      2.52644362    1.89855248    0.00382950
    6   -6.43117614    8.66981579    8.47698308      7.67199070  -18.88894587  -19.04722818     -4.75014404   -4.16592922   -2.05997359
    6   -5.04146810    8.69527508    8.32020172      5.81708530  -30.44720527  -12.14476399     -1.71557905    2.29883735    2.10326793
    1   -8.87824379   -9.09824118   -8.80966823     12.99279386   -9.89409488  -30.30915565    -26.40798271   -6.06877905   -0.55923236
    1   -7.02321460    8.03255086    7.83881062      2.09192237   -0.07760936   -4.28379880    -18.79942089  -21.95244825  -26.11188940
    1   -4.42806344    9.17284708    9.07732623     -0.67564908    1.05791625   -5.04097544      3.68909704   17.51722976   17.26628131
    1   -4.64158708    7.91262970    7.62224189     -2.67647149   26.73601342   18.23016698      4.01984245   34.68956499   24.32435792
