 BEGIN_INFO
   #
   # This is a XCRYSDEN-Structure-File
   # aimed for Visualization of Fermi Surface
   #
   # Case: Tight-binding calculation
   #
   # Launch as: xcrysden --xsf HICOLM.XSF
   #
 END_INFO
 # estrutura final
CRYSTAL
PRIMVEC
      19.00000000       0.00000000       0.00000000
       0.00000000      19.00000000       0.00000000
       0.00000000       0.00000000      19.00000000
PRIMCOORD
    9    1
    8   -8.48556837   -9.41455866    9.32714581     24.28188619   22.13197980   36.12780313      0.54767897    6.21725138    4.35747172
    6   -7.08511004    9.48219212    9.39495116    -57.78708658   -8.14249489  -28.94270232     -2.24861882    2.30604766   -2.15244102
    8   -6.47481225   -9.06491909   -8.68057435     16.31705747   14.16453658   29.85126498     -3.99337631   -3.99518533   -3.76264560
    6   -6.41904877    8.77753822    8.38797968    -24.21478004  -24.11314123  -38.05453122     -6.27653608   -4.54176146   -0.65938185
    6   -5.04591408    8.51977380    8.46288482      0.35661436  -11.65973986  -23.82962304      4.18914287    0.97046420   -2.47336301
    1   -8.86203699   -8.90865527   -8.90422675     12.91170912  -20.07741519  -29.40299678     16.79114470  -16.02274077   14.44089714
    1   -7.03157442    8.35142286    7.52214497     26.63751517   15.35348486   34.13072859     36.22787087  -25.18952256    5.07095837
    1   -4.38666105    8.92516387    9.17765082      5.22564498    9.98302421   18.59483350     27.87104176   -1.49357513   12.54145997
    1   -4.54197369    7.92661027    7.70605119     -3.72856065    2.35976572    1.52522316     25.47304925   22.51099528   21.48352316
