 BEGIN_INFO
   #
   # This is a XCRYSDEN-Structure-File
   # aimed for Visualization of Fermi Surface
   #
   # Case: Tight-binding calculation
   #
   # Launch as: xcrysden --xsf HICOLM.XSF
   #
 END_INFO
 # estrutura final
CRYSTAL
PRIMVEC
      19.00000000       0.00000000       0.00000000
       0.00000000      19.00000000       0.00000000
       0.00000000       0.00000000      19.00000000
PRIMCOORD
    9    1
    8   -8.43935000    9.48967000    9.42172000      0.00000000    0.00000000    0.00000000      0.00000000    0.00000000    0.00000000
    6   -7.09080000    9.46995000    9.41564000      0.00000000    0.00000000    0.00000000      0.00000000    0.00000000    0.00000000
    8   -6.45685000   -8.88284000   -8.75599000      0.00000000    0.00000000    0.00000000      0.00000000    0.00000000    0.00000000
    6   -6.44056000    8.62113000    8.40174000      0.00000000    0.00000000    0.00000000      0.00000000    0.00000000    0.00000000
    6   -5.09256000    8.58264000    8.39462000      0.00000000    0.00000000    0.00000000      0.00000000    0.00000000    0.00000000
    1   -8.88077000   -8.97174000   -8.90251000      0.00000000    0.00000000    0.00000000      0.00000000    0.00000000    0.00000000
    1   -7.00754000    8.02436000    7.70606000      0.00000000    0.00000000    0.00000000      0.00000000    0.00000000    0.00000000
    1   -4.50904000    9.16256000    9.11065000      0.00000000    0.00000000    0.00000000      0.00000000    0.00000000    0.00000000
    1   -4.56369000    7.96990000    7.68626000      0.00000000    0.00000000    0.00000000      0.00000000    0.00000000    0.00000000
