 BEGIN_INFO
   #
   # This is a XCRYSDEN-Structure-File
   # aimed for Visualization of Fermi Surface
   #
   # Case: Tight-binding calculation
   #
   # Launch as: xcrysden --xsf HICOLM.XSF
   #
 END_INFO
 # estrutura final
CRYSTAL
PRIMVEC
      19.00000000       0.00000000       0.00000000
       0.00000000      19.00000000       0.00000000
       0.00000000       0.00000000      19.00000000
PRIMCOORD
    9    1
    8   -8.43935012    9.48967002    9.42172002     -1.15470226    0.19049121    0.21549295      0.00000000    0.00000000    0.00000000
    6   -7.09080012    9.46995002    9.41564002      1.30877059   -1.71457863   -2.04152795      0.00000000    0.00000000    0.00000000
    8   -6.45685012   -8.88283998   -8.75598998      0.00466747    0.04877352    0.06182188      0.00000000    0.00000000    0.00000000
    6   -6.44056012    8.62113002    8.40174002     -2.66815877    1.85157097    2.15666179      0.00000000    0.00000000    0.00000000
    6   -5.09256012    8.58264002    8.39462002      2.30725203    0.04816171    0.12198869      0.00000000    0.00000000    0.00000000
    1   -8.88077012   -8.97173998   -8.90250998      0.55810949   -0.17284825   -0.21103992      0.00000000    0.00000000    0.00000000
    1   -7.00754012    8.02436002    7.70606002     -0.13481846   -0.00212975    0.00136108      0.00000000    0.00000000    0.00000000
    1   -4.50904012    9.16256002    9.11065002     -0.24422984   -0.15373442   -0.19242549      0.00000000    0.00000000    0.00000000
    1   -4.56369012    7.96990002    7.68626002      0.02310975   -0.09570637   -0.11233302      0.00000000    0.00000000    0.00000000
