 BEGIN_INFO
   #
   # This is a XCRYSDEN-Structure-File
   # aimed for Visualization of Fermi Surface
   #
   # Case: Tight-binding calculation
   #
   # Launch as: xcrysden --xsf HICOLM.XSF
   #
 END_INFO
 # estrutura final
CRYSTAL
PRIMVEC
      19.00000000       0.00000000       0.00000000
       0.00000000      19.00000000       0.00000000
       0.00000000       0.00000000      19.00000000
PRIMCOORD
    9    1
    8   -8.50940038   -9.45256766    9.40666660    -12.74924030   11.69276590   11.80450542      4.72192673   -1.64830178   -1.33611768
    6   -7.15359582    9.40715671    9.38541376     33.99756061  -14.46159502   12.44472057     -6.73956443    4.12732139    2.40911379
    8   -6.36689210   -9.02951116   -8.82854271    -21.60606918   -2.37335525   -8.58178059     -0.97626743   -4.81113308   -6.02161027
    6   -6.43543322    8.54991974    8.50051039    -36.08394547   43.58150389  -15.01421176     -1.03888917    6.23822613    4.15476734
    6   -5.06484878    8.79078546    8.43693592     -4.84174103  -39.90250325  -28.01313989      1.99069400    1.90602369    4.09638798
    1   -8.85936289   -8.84832294   -8.90701304     11.62436483  -12.37866852  -13.29756644     13.47173796    0.49500856   18.33726902
    1   -6.99237243    8.16231639    7.63009928     13.56441268   -7.18368086   16.17196964     -1.11981268  -24.18884430   -8.28617854
    1   -4.55165289    9.16905371    9.26131200     13.16135387   14.09273317   21.16899984      6.73519999   -3.98621060    4.38171120
    1   -4.51667107    8.22983349    7.68564727      2.93330400    6.93279992    3.31650321     -9.57590151  -16.01608472  -24.66958322
