 BEGIN_INFO
   #
   # This is a XCRYSDEN-Structure-File
   # aimed for Visualization of Fermi Surface
   #
   # Case: Tight-binding calculation
   #
   # Launch as: xcrysden --xsf HICOLM.XSF
   #
 END_INFO
 # estrutura final
CRYSTAL
PRIMVEC
      19.00000000       0.00000000       0.00000000
       0.00000000      19.00000000       0.00000000
       0.00000000       0.00000000      19.00000000
PRIMCOORD
    9    1
    8   -8.47934593   -9.36012122    9.30289592     -8.80342396   26.80911939   18.07539577     -0.55740053   -2.23444570   -0.68317176
    6   -7.14673314    9.41345564    9.43919425     -3.30467945  -38.83569470  -50.15524102      6.05565091    2.34942293    0.84725207
    8   -6.40449685   -9.19411017   -8.69715002      2.14464926   20.00766232   28.00730823     -4.52495872   -0.53496805    0.09903369
    6   -6.45660219    8.73335922    8.40565598     29.98715290   15.69436444    7.75626345     -2.09007660   -1.06587588    1.25393274
    6   -5.05349721    8.66839121    8.46182614    -31.65821709   20.27772939   43.23266213      6.09844194   -2.69228049   -1.99923636
    1   -8.81753632   -8.67398721   -9.09677257      4.30805522  -13.58553802   -4.24957902     -6.15697000   29.21991537   19.04360904
    1   -6.89680105    8.42721228    7.49028804    -20.02186477   -7.76218637   -4.52085392     -3.80955522   29.33588626   14.15218850
    1   -4.52256672    9.08001997    9.30620823      0.95022243   -0.40486533    1.06841430    -42.25793811   16.10412266  -22.18893026
    1   -4.52809808    8.22246131    7.72471402     26.39810547  -22.20059111  -39.21436992     12.97492325  -13.91341832   -2.94945673
