 BEGIN_INFO
   #
   # This is a XCRYSDEN-Structure-File
   # aimed for Visualization of Fermi Surface
   #
   # Case: Tight-binding calculation
   #
   # Launch as: xcrysden --xsf HICOLM.XSF
   #
 END_INFO
 # estrutura final
CRYSTAL
PRIMVEC
      19.00000000       0.00000000       0.00000000
       0.00000000      19.00000000       0.00000000
       0.00000000       0.00000000      19.00000000
PRIMCOORD
    9    1
    8   -8.43935006    9.48967000    9.42172000     -0.59673111    0.00872607    0.00269039      0.00000000    0.00000000    0.00000000
    6   -7.09080006    9.46995000    9.41564000      1.71896155   -1.55758477   -1.85591946      0.00000000    0.00000000    0.00000000
    8   -6.45685006   -8.88284000   -8.75599000      0.03606773    0.03682214    0.04712899      0.00000000    0.00000000    0.00000000
    6   -6.44056006    8.62113000    8.40174000     -3.24937949    1.57174407    1.81714496      0.00000000    0.00000000    0.00000000
    6   -5.09256006    8.58264000    8.39462000      2.09108132   -0.05970751   -0.01104488      0.00000000    0.00000000    0.00000000
    1   -8.88077006   -8.97174000   -8.90251000      0.00000000    0.00000000    0.00000000      0.00000000    0.00000000    0.00000000
    1   -7.00754006    8.02436000    7.70606000      0.00000000    0.00000000    0.00000000      0.00000000    0.00000000    0.00000000
    1   -4.50904006    9.16256000    9.11065000      0.00000000    0.00000000    0.00000000      0.00000000    0.00000000    0.00000000
    1   -4.56369006    7.96990000    7.68626000      0.00000000    0.00000000    0.00000000      0.00000000    0.00000000    0.00000000
