 BEGIN_INFO
   #
   # This is a XCRYSDEN-Structure-File
   # aimed for Visualization of Fermi Surface
   #
   # Case: Tight-binding calculation
   #
   # Launch as: xcrysden --xsf HICOLM.XSF
   #
 END_INFO
 # estrutura final
CRYSTAL
PRIMVEC
      19.00000000       0.00000000       0.00000000
       0.00000000      19.00000000       0.00000000
       0.00000000       0.00000000      19.00000000
PRIMCOORD
    9    1
    8   -8.43935012    9.48967002    9.42172002     -1.15512279    0.16980911    0.18929961      0.00000000    0.00000000    0.00000000
    6   -7.09080012    9.46995002    9.41564002      1.27779086   -1.68194515   -2.00064173      0.00000000    0.00000000    0.00000000
    8   -6.45685012   -8.88283998   -8.75598998      0.03606773    0.03682214    0.04712899      0.00000000    0.00000000    0.00000000
    6   -6.44056012    8.62113002    8.40174002     -2.64284531    1.81274628    2.11167511      0.00000000    0.00000000    0.00000000
    6   -5.09256012    8.58264002    8.39462002      2.19956523    0.08625904    0.16480556      0.00000000    0.00000000    0.00000000
    1   -8.88077012   -8.97173998   -8.90250998      0.55810949   -0.17284825   -0.21103992      0.00000000    0.00000000    0.00000000
    1   -7.00754012    8.02436002    7.70606002     -0.16109880    0.00895072    0.01327451      0.00000000    0.00000000    0.00000000
    1   -4.50904012    9.16256002    9.11065002     -0.18123633   -0.18011820   -0.22239280      0.00000000    0.00000000    0.00000000
    1   -4.56369012    7.96990002    7.68626002      0.06876992   -0.07967569   -0.09210933      0.00000000    0.00000000    0.00000000
