 BEGIN_INFO
   #
   # This is a XCRYSDEN-Structure-File
   # aimed for Visualization of Fermi Surface
   #
   # Case: Tight-binding calculation
   #
   # Launch as: xcrysden --xsf HICOLM.XSF
   #
 END_INFO
 # estrutura final
CRYSTAL
PRIMVEC
      19.00000000       0.00000000       0.00000000
       0.00000000      19.00000000       0.00000000
       0.00000000       0.00000000      19.00000000
PRIMCOORD
    9    1
    8   -8.46863795    9.48122521    9.41356169     -2.69001844   -1.11776660   -0.70291851      0.00000000    0.00000000    0.00000000
    6   -7.10402361    9.44665993    9.39586207     -2.84903872   -1.53782622   -1.05429780      0.00000000    0.00000000    0.00000000
    8   -6.46474071   -8.89634970   -8.78083836     -1.26371102   -1.69266931   -3.03354129      0.00000000    0.00000000    0.00000000
    6   -6.45658164    8.63917882    8.43269066      0.57938928    0.09985903    1.25127194      0.00000000    0.00000000    0.00000000
    6   -5.06117604    8.58652029    8.40219927      1.33383815    0.24928621    0.80753019      0.00000000    0.00000000    0.00000000
    1   -8.85049356   -8.96763890   -8.89908110      3.30036123    0.95599080    0.72544844      0.00000000    0.00000000    0.00000000
    1   -7.02182483    8.04760483    7.72279077     -1.50855937    2.77053878    1.92745219      0.00000000    0.00000000    0.00000000
    1   -4.49435912    9.16545170    9.11336159      2.81208674    0.33422866    0.33617860      0.00000000    0.00000000    0.00000000
    1   -4.55932254    7.96297782    7.67764341      0.28565215   -0.06164135   -0.25712374      0.00000000    0.00000000    0.00000000
