 BEGIN_INFO
   #
   # This is a XCRYSDEN-Structure-File
   # aimed for Visualization of Fermi Surface
   #
   # Case: Tight-binding calculation
   #
   # Launch as: xcrysden --xsf HICOLM.XSF
   #
 END_INFO
 # estrutura final
CRYSTAL
PRIMVEC
      19.00000000       0.00000000       0.00000000
       0.00000000      19.00000000       0.00000000
       0.00000000       0.00000000      19.00000000
PRIMCOORD
    9    1
    8   -8.43935000    9.48967000    9.42172000    -30.69258150    8.44631902   10.01118160      0.00000000    0.00000000    0.00000000
    6   -7.09080000    9.46995000    9.41564000     13.49555982  -37.70251400  -44.83511475      0.00000000    0.00000000    0.00000000
    8   -6.45685000   -8.88284000   -8.75599000     17.66853565    3.58431938    4.04473211      0.00000000    0.00000000    0.00000000
    6   -6.44056000    8.62113000    8.40174000    -61.32820112   41.94701503   50.51500362      0.00000000    0.00000000    0.00000000
    6   -5.09256000    8.58264000    8.39462000     54.58816598   -0.45348403    0.99249964      0.00000000    0.00000000    0.00000000
    1   -8.88077000   -8.97174000   -8.90251000     -5.82397516   -4.56915749   -6.07799623      0.00000000    0.00000000    0.00000000
    1   -7.00754000    8.02436000    7.70606000      0.81988666   -3.58341223   -5.47782342      0.00000000    0.00000000    0.00000000
    1   -4.50904000    9.16256000    9.11065000     10.36131565   -5.30487232   -6.43119947      0.00000000    0.00000000    0.00000000
    1   -4.56369000    7.96990000    7.68626000      0.91129402   -2.36421335   -2.74128310      0.00000000    0.00000000    0.00000000
