 BEGIN_INFO
   #
   # This is a XCRYSDEN-Structure-File
   # aimed for Visualization of Fermi Surface
   #
   # Case: Tight-binding calculation
   #
   # Launch as: xcrysden --xsf HICOLM.XSF
   #
 END_INFO
 # estrutura final
CRYSTAL
PRIMVEC
      19.00000000       0.00000000       0.00000000
       0.00000000      19.00000000       0.00000000
       0.00000000       0.00000000      19.00000000
PRIMCOORD
    9    1
    8   -8.43935008    9.48967003    9.42172003     -0.82272520    0.28446835    0.34866480      0.00000000    0.00000000    0.00000000
    6   -7.09080008    9.46995003    9.41564003      1.71896155   -1.55758477   -1.85591946      0.00000000    0.00000000    0.00000000
    8   -6.45685008   -8.88283997   -8.75598997      0.03606773    0.03682214    0.04712899      0.00000000    0.00000000    0.00000000
    6   -6.44056008    8.62113003    8.40174003     -3.24937949    1.57174407    1.81714496      0.00000000    0.00000000    0.00000000
    6   -5.09256008    8.58264003    8.39462003      2.09108132   -0.05970751   -0.01104488      0.00000000    0.00000000    0.00000000
    1   -8.88077008   -8.97173997   -8.90250997      0.22599409   -0.27574228   -0.34597442      0.00000000    0.00000000    0.00000000
    1   -7.00754008    8.02436003    7.70606003      0.00000000    0.00000000    0.00000000      0.00000000    0.00000000    0.00000000
    1   -4.50904008    9.16256003    9.11065003      0.00000000    0.00000000    0.00000000      0.00000000    0.00000000    0.00000000
    1   -4.56369008    7.96990003    7.68626003      0.00000000    0.00000000    0.00000000      0.00000000    0.00000000    0.00000000
