 BEGIN_INFO
   #
   # This is a XCRYSDEN-Structure-File
   # aimed for Visualization of Fermi Surface
   #
   # Case: Tight-binding calculation
   #
   # Launch as: xcrysden --xsf HICOLM.XSF
   #
 END_INFO
 # estrutura final
CRYSTAL
PRIMVEC
      19.00000000       0.00000000       0.00000000
       0.00000000      19.00000000       0.00000000
       0.00000000       0.00000000      19.00000000
PRIMCOORD
    9    1
    8   -8.43935012    9.48967000    9.42172000     -1.15822143    0.01530177    0.00315164      0.00000000    0.00000000    0.00000000
    6   -7.09080012    9.46995000    9.41564000      1.47959574   -1.46629707   -1.73824436      0.00000000    0.00000000    0.00000000
    8   -6.45685012   -8.88284000   -8.75599000      0.03606773    0.03682214    0.04712899      0.00000000    0.00000000    0.00000000
    6   -6.44056012    8.62113000    8.40174000     -2.84155155    1.75160554    2.03542570      0.00000000    0.00000000    0.00000000
    6   -5.09256012    8.58264000    8.39462000      2.19956523    0.08625904    0.16480556      0.00000000    0.00000000    0.00000000
    1   -8.88077012   -8.97174000   -8.90251000      0.55810949   -0.17284825   -0.21103992      0.00000000    0.00000000    0.00000000
    1   -7.00754012    8.02436000    7.70606000     -0.16109880    0.00895072    0.01327451      0.00000000    0.00000000    0.00000000
    1   -4.50904012    9.16256000    9.11065000     -0.18123633   -0.18011820   -0.22239280      0.00000000    0.00000000    0.00000000
    1   -4.56369012    7.96990000    7.68626000      0.06876992   -0.07967569   -0.09210933      0.00000000    0.00000000    0.00000000
