 BEGIN_INFO
   #
   # This is a XCRYSDEN-Structure-File
   # aimed for Visualization of Fermi Surface
   #
   # Case: Tight-binding calculation
   #
   # Launch as: xcrysden --xsf HICOLM.XSF
   #
 END_INFO
 # estrutura final
CRYSTAL
PRIMVEC
      19.00000000       0.00000000       0.00000000
       0.00000000      19.00000000       0.00000000
       0.00000000       0.00000000      19.00000000
PRIMCOORD
    9    1
    8   -8.43935012    9.48967002    9.42172002     -1.17009125    0.19965218    0.23901462      0.00000000    0.00000000    0.00000000
    6   -7.09080012    9.46995002    9.41564002      0.82606154   -1.68291333   -2.00459964      0.00000000    0.00000000    0.00000000
    8   -6.45685012   -8.88283998   -8.75598998      0.23240132   -0.02963722   -0.05253249      0.00000000    0.00000000    0.00000000
    6   -6.44056012    8.62113002    8.40174002     -2.46950886    1.87330675    2.26674215      0.00000000    0.00000000    0.00000000
    6   -5.09256012    8.58264002    8.39462002      2.37632998    0.04434589    0.12304619      0.00000000    0.00000000    0.00000000
    1   -8.88077012   -8.97173998   -8.90250998      0.55815871   -0.16839891   -0.21455389      0.00000000    0.00000000    0.00000000
    1   -7.00754012    8.02436002    7.70606002     -0.12785240    0.01231981   -0.04115880      0.00000000    0.00000000    0.00000000
    1   -4.50904012    9.16256002    9.11065002     -0.22187627   -0.14013630   -0.18826962      0.00000000    0.00000000    0.00000000
    1   -4.56369012    7.96990002    7.68626002     -0.00362278   -0.10853887   -0.12768852      0.00000000    0.00000000    0.00000000
