 BEGIN_INFO
   #
   # This is a XCRYSDEN-Structure-File
   # aimed for Visualization of Fermi Surface
   #
   # Case: Tight-binding calculation
   #
   # Launch as: xcrysden --xsf HICOLM.XSF
   #
 END_INFO
 # estrutura final
CRYSTAL
PRIMVEC
      19.00000000       0.00000000       0.00000000
       0.00000000      19.00000000       0.00000000
       0.00000000       0.00000000      19.00000000
PRIMCOORD
    6    1
    6    9.43099395    9.49120504   -9.39614625     -0.72220920   -0.00317754    0.14641437     -1.08737110   -1.45175478   -0.32396209
    6   -8.08467395   -9.49120504   -9.39614625      0.72220920    0.00317754    0.14641437      1.08737110    1.45175478   -0.32396209
    1    8.85672451    8.60736437    9.32420836      0.15874403    0.14858747   -0.14482795     -0.26033517   -5.14463866    3.47251233
    1    8.88467098   -8.57330061   -9.37012996      0.01710362   -0.05723657   -0.00158642      8.21736333    9.04169282    0.38784788
    1   -7.51040451   -8.60736437    9.32420836     -0.15874403   -0.14858747   -0.14482795      0.26033517    5.14463866    3.47251233
    1   -7.53835098    8.57330061   -9.37012996     -0.01710362    0.05723657   -0.00158642     -8.21736333   -9.04169282    0.38784788
