 BEGIN_INFO
   #
   # This is a XCRYSDEN-Structure-File
   # aimed for Visualization of Fermi Surface
   #
   # Case: Tight-binding calculation
   #
   # Launch as: xcrysden --xsf HICOLM.XSF
   #
 END_INFO
 # estrutura final
CRYSTAL
PRIMVEC
      19.00000000       0.00000000       0.00000000
       0.00000000      19.00000000       0.00000000
       0.00000000       0.00000000      19.00000000
PRIMCOORD
    6    1
    6   -9.60675234    9.50248337    9.63111865     -2.44143297    0.16179288   -0.71167514      0.00000000    0.00000000    0.00000000
    6   -8.04692766    9.49751663    9.36888135      2.44143297   -0.16179288    0.71167514      0.00000000    0.00000000    0.00000000
    1    8.97362540    8.62971799    9.21422241      0.59451191    0.80632932    0.47618203      0.00000000    0.00000000    0.00000000
    1    8.97352587   -8.62982612    9.21214391      0.61070053   -0.91808311    0.54154582      0.00000000    0.00000000    0.00000000
    1   -7.62730540   -8.62971799   -9.21422241     -0.59451191   -0.80632932   -0.47618203      0.00000000    0.00000000    0.00000000
    1   -7.62720587    8.62982612   -9.21214391     -0.61070053    0.91808311   -0.54154582      0.00000000    0.00000000    0.00000000
