 BEGIN_INFO
   #
   # This is a XCRYSDEN-Structure-File
   # aimed for Visualization of Fermi Surface
   #
   # Case: Tight-binding calculation
   #
   # Launch as: xcrysden --xsf HICOLM.XSF
   #
 END_INFO
 # estrutura final
CRYSTAL
PRIMVEC
      19.00000000       0.00000000       0.00000000
       0.00000000      19.00000000       0.00000000
       0.00000000       0.00000000      19.00000000
PRIMCOORD
    6    1
    6   -9.49632248    9.50000302    9.50013022     -5.47414985   -0.11275970    0.28068463      0.00000000    0.00000000    0.00000000
    6   -8.15735752    9.49999698    9.49986978      5.47414985    0.11275970   -0.28068463      0.00000000    0.00000000    0.00000000
    1    8.96291517    8.55427685    9.44594925      0.08036299   -0.09201536   -0.07195781      0.00000000    0.00000000    0.00000000
    1    8.96293373   -8.55429873    9.44593564      0.07972716    0.15490603   -0.07557259      0.00000000    0.00000000    0.00000000
    1   -7.61659517   -8.55427685   -9.44594925     -0.08036299    0.09201536    0.07195781      0.00000000    0.00000000    0.00000000
    1   -7.61661373    8.55429873   -9.44593564     -0.07972716   -0.15490603    0.07557259      0.00000000    0.00000000    0.00000000
