 BEGIN_INFO
   #
   # This is a XCRYSDEN-Structure-File
   # aimed for Visualization of Fermi Surface
   #
   # Case: Tight-binding calculation
   #
   # Launch as: xcrysden --xsf HICOLM.XSF
   #
 END_INFO
 # estrutura final
CRYSTAL
PRIMVEC
      19.00000000       0.00000000       0.00000000
       0.00000000      19.00000000       0.00000000
       0.00000000       0.00000000      19.00000000
PRIMCOORD
    6    1
    6    9.41595788    9.49947466   -9.39462131      1.64182491   -5.81032400    1.35596589     -0.37628572    1.17184566   -0.15060829
    6   -8.06963788   -9.49947466    9.39462131     -1.64182491    5.81032400   -1.35596589      0.37628572   -1.17184566    0.15060829
    1    8.96679911    8.59888331    9.16197905      1.33869806    5.24317405    0.88633205      3.42117878   -1.59357134   -0.73913033
    1    8.99551478   -8.60618911    9.16146912     -5.12159100    3.27717466   -3.01474383      1.40970909   -5.80012979    3.69953698
    1   -7.62047911   -8.59888331   -9.16197905     -1.33869806   -5.24317405   -0.88633205     -3.42117878    1.59357134    0.73913033
    1   -7.64919478    8.60618911   -9.16146912      5.12159100   -3.27717467    3.01474383     -1.40970909    5.80012980   -3.69953698
