 BEGIN_INFO
   #
   # This is a XCRYSDEN-Structure-File
   # aimed for Visualization of Fermi Surface
   #
   # Case: Tight-binding calculation
   #
   # Launch as: xcrysden --xsf HICOLM.XSF
   #
 END_INFO
 # estrutura final
CRYSTAL
PRIMVEC
      19.00000000       0.00000000       0.00000000
       0.00000000      19.00000000       0.00000000
       0.00000000       0.00000000      19.00000000
PRIMCOORD
    6    1
    6    9.41180576   -9.49815325   -9.42681419     -0.13170943   -0.35073557    0.03801086     -0.68315549   -0.06827261   -0.11702636
    6   -8.06548576    9.49815325    9.42681419      0.13170943    0.35073557   -0.03801086      0.68315549    0.06827261    0.11702636
    1    8.98032091    8.61559728    9.09367205      0.09163353    0.05728070    0.08875265      0.41484000    2.27358858    0.99240848
    1    8.97950718   -8.62434038    9.09931287     -0.01497453    0.24555224   -0.07869536      2.68018346   -3.39934749    1.43774640
    1   -7.63400091   -8.61559728   -9.09367205     -0.09163353   -0.05728070   -0.08875265     -0.41484000   -2.27358858   -0.99240848
    1   -7.63318718    8.62434038   -9.09931287      0.01497453   -0.24555224    0.07869536     -2.68018346    3.39934749   -1.43774640
