 BEGIN_INFO
   #
   # This is a XCRYSDEN-Structure-File
   # aimed for Visualization of Fermi Surface
   #
   # Case: Tight-binding calculation
   #
   # Launch as: xcrysden --xsf HICOLM.XSF
   #
 END_INFO
 # estrutura final
CRYSTAL
PRIMVEC
      19.00000000       0.00000000       0.00000000
       0.00000000      19.00000000       0.00000000
       0.00000000       0.00000000      19.00000000
PRIMCOORD
    6    1
    6   -9.49896443    9.50000443    9.50027054     -5.26070766    0.10969945    0.29035389      0.00000000    0.00000000    0.00000000
    6   -8.15471557    9.49999557    9.49972946      5.26070766   -0.10969945   -0.29035389      0.00000000    0.00000000    0.00000000
    1    8.96407628    8.55239867    9.44453014      0.04579731   -0.13907615   -0.07981086      0.00000000    0.00000000    0.00000000
    1    8.96409496   -8.55242539    9.44450588      0.04530158    0.07850470   -0.07623938      0.00000000    0.00000000    0.00000000
    1   -7.61775628   -8.55239867   -9.44453014     -0.04579731    0.13907615    0.07981086      0.00000000    0.00000000    0.00000000
    1   -7.61777496    8.55242539   -9.44450588     -0.04530158   -0.07850470    0.07623938      0.00000000    0.00000000    0.00000000
