 BEGIN_INFO
   #
   # This is a XCRYSDEN-Structure-File
   #
   # aimed for Visualization of geometry
   #
   # Launch as: xcrysden --xsf HICOLM.XSF
   #
   #
 END_INFO
 # estrutura final
CRYSTAL
PRIMVEC
      20.00000000       0.00000000       0.00000000
       0.00000000      20.00000000       0.00000000
       0.00000000       0.00000000      20.00000000
PRIMCOORD
  306    1
    6    7.50207367    7.43274525    7.57378474    -38.69781429   -0.07023851   11.29742541     -1.28314769   -1.92555595   -0.29528867
    6    8.86504297    7.42288131    7.63514091     38.46178252    8.97732523    5.96430423      1.36795781   -1.28265935    1.95119822
    1    6.92732327    6.79167541    8.25147467      5.15640376    4.45666542   -9.47951576     -0.05376311  -12.05163453   11.43416602
    1    6.99444518    8.31611173    7.21281783     -0.35943486   -2.56029742   -4.31085636      4.65346490   22.34911685  -17.00344223
    1    9.44435720    8.28049577    7.26922052     -6.73135764  -11.27049649    2.11644244     -8.48123710    5.15419488  -32.54429443
    1    9.34601619    6.78960487    8.36951133     -1.57080492   -1.47835753   -9.32805690    -10.75300821  -20.58623595   18.89889628
    8    4.59487364    7.08682233   -9.27677226    135.57278080  -22.45981284  -64.12329449     -2.98368494    0.79204897   -0.07745773
    1    3.90268394    7.74370214   -9.21233485    -50.31658807  -54.45764839   62.38324649    -53.95631312   14.82056199  -13.71820995
    1    4.68931992    6.19240979   -8.78990978    -86.17289334   64.41688347    4.95989634     60.05338693  -25.25744567  -42.14699482
    8   -6.13863700   -6.28042460    8.67466972      0.96643979   58.11343548   60.17130288     -2.67358798   -3.32913091   -4.81237144
    1   -6.89221946   -6.91188522    8.60691858     43.90921472   -8.74201967  -39.70160955    -72.99594280   23.84087367  116.29538340
    1   -5.47192125   -6.23961994    7.96915295    -37.20272656  -43.19836610  -20.11765055     70.84880879   76.89251360   46.79668205
    8    7.35416041   -7.52809950   -6.96568013     86.68303824  -36.99030739  -47.16168629     -6.02810160    4.54803556    5.12841822
    1    6.41624282   -7.36518778   -7.10303332     -2.52357472   12.02426750   65.43691840    -40.71296498  -55.69612949  -59.07303245
    1    7.77024233   -7.43859016   -6.04839874    -81.37784346   15.72012816  -27.99148775    118.20356269  -48.92995538  -48.54578038
    8    3.61364217   -8.74149035    4.56977781     46.42730318  -43.71700232  -31.30085357     -2.76217089    3.56008621    4.65348050
    1    3.19999412   -9.52626367    5.06129476    -12.53118928   79.36148766   -1.79553665     78.21268515 -108.96496870  -72.33203828
    1    3.25636257   -7.84626992    4.73087509    -33.17803874  -37.07387526   34.17191924     43.33612259   64.51750668  -50.57586363
    8    7.26853845    9.74923974   -8.63012776     79.38317508   64.18618420  -30.42824029     -5.57138212  -17.51189041    2.09844349
    1    6.58052900    9.22818801   -9.03234944    -30.28253634  -22.34940287   63.23426705     28.42187902   33.25492063 -104.03953202
    1    7.38254212    9.83351953   -7.64373995    -61.06397536  -40.23273452  -26.80865043     84.37519366   95.43282771    7.64735202
    8    8.58653306   -7.34947609    0.96777063    -60.20844956    5.62726809  110.40724829      9.22884165   -4.81378766   -7.45989767
    1    8.59327289   -6.76920607    0.16417677     58.19641793  -79.34522423  -12.13631226     -8.65164683   23.53974498  -30.13141826
    1    9.07616978   -8.24443578    1.13525298      4.34132046   74.40899099  -97.32265858    -71.89349954  -22.13032991   90.17716553
    8    0.25794027    6.72628852    6.50974285   -106.61374196   49.70071969   15.35099884      9.41971578   -1.60930868    2.18522145
    1    0.74429937    6.76439211    5.65455132     47.34965344  -38.00206923   46.49630550    -52.52006301   81.98555283  -51.21137029
    1    0.58776467    6.25896388    7.31219476     54.43906066   -7.83663103  -54.19464556    -23.01642551   86.02521700   93.02453847
    8    7.83044802    1.11056119    3.99646454    -53.73226474  -99.79676595   14.81795941      8.77716022    6.00090711    0.67626254
    1    7.69030867    2.05227879    4.01204164     71.00826488   16.88210932  -20.30088309    -65.68502165   25.00620547  -25.44536819
    1    8.72105685    0.67290902    3.78477331    -15.92470924   86.94586917    8.03517071    -36.68419914 -129.19649417   40.49485674
    8    8.85670833    0.06247754    9.66319515     11.95724752   59.49448781   89.63902632      1.27511805   -8.97941723   -1.04597568
    1    9.58712970    0.05925856    8.99464352    -64.00797753  -50.88198545  -13.76177040     83.23405551   71.42589182   50.65078012
    1    8.06621792   -0.52086377    9.62864716     48.15098510  -13.99520397  -66.00702467    -49.19349116   25.16664448   46.01579983
    8    4.12556270   -7.34438747   -6.30764576     91.50246982   17.95848517   83.93381797     -4.07669866    0.11344930   -1.95178413
    1    3.68404114   -8.21267437   -6.15942754    -30.09538907   33.72016013  -63.88622721     53.86094850  -16.85335928   96.45934676
    1    3.90971154   -6.74225510   -7.02179826    -57.55841363  -47.21951061  -20.08294802      5.78327833   86.26261335   24.82409360
    8   -9.03176162    3.12042816   -7.78157689     27.90945025 -103.16355239  -61.14258296      1.21781154   16.18042795   -0.58482031
    1   -9.91209900    3.37248879   -8.18054014     35.45076558   49.08573056   57.74101979     -4.97659601  -72.06760049 -106.18946603
    1   -8.59371179    3.62381257   -7.09288899    -60.72899418   53.10675934   -3.27897209     55.27252846  -28.25403935   58.36096553
    8   -8.42070624   -8.83510440   -5.57168324     64.99033503  -26.95779281   28.98289565    -16.65050153   11.83701983   -7.21463089
    1   -8.24395817   -8.93284046   -6.53020879    -39.22827666   17.59226549    7.50170431    122.14228934  -61.61630511   -5.89909595
    1   -9.24885140   -8.45993508   -5.34922437    -33.47970862   11.73862020  -36.06549903     -4.21956003    2.04330217  124.59973517
    8   -5.44034604    2.63335637   -8.09529691     56.13988842   47.22923895  -50.76192163      2.69535263  -10.66490229    6.79787922
    1   -6.21084323    2.36877817   -7.67075430    -13.54071861  -45.54879083   27.20345921    -49.06708176   48.42554848  -18.00451801
    1   -4.70982695    1.97628978   -8.05555186    -39.72900503   -4.81948909   20.57950079    129.00491227  107.24512946  -72.78105430
    8    6.82203320    1.03148512    0.50365811      3.03917207  115.09712985  -85.76295701     -3.37771083   -3.37173452   -7.48098675
    1    7.65536614    0.67699605    0.87689399    -68.15111428  -57.74538314   35.56133128     53.05818092   56.83148574  -23.96884697
    1    5.88289917    0.71781102    0.61855131     62.46314549  -54.63336745   52.74069798    -40.93967132   32.28894884  -87.78534373
    8    1.11456089    9.72313020    6.78960542     40.39959588   84.83412968  -66.32413294    -10.14868081  -19.49580596   -6.33128157
    1    1.35647262    8.79972328    6.60011465    -45.67173150  -12.23502081   57.96742333     35.06386618   -1.61009339 -108.50857002
    1    0.50752568    9.98550537    7.50430434      4.98208979  -74.12433102    3.61632649     -7.02407259   96.29175903  -23.86692061
    8    0.75769141    5.89907781   -9.95399723     15.20163826   91.84290169 -112.23477452      3.05330244    2.07381800    6.14083506
    1    1.56563316    5.39531272   -9.65233656    -87.37162908  -20.69095647   64.86765186     29.57069004  -20.98791151  -14.15523204
    1   -0.18449416    5.94825021   -9.60875423     69.22241468  -70.48398806   53.48474889    -49.31635264   30.53936649  -32.31163807
    8    2.58177990   -4.76548757    7.41240846     54.55993530    8.23051399  -93.04107352      4.38140032    0.84193050    3.60168101
    1    1.83460413   -5.38737728    7.36794012     -0.60633681   19.20580294   61.73975495      4.18996712  -34.62737445 -116.74178202
    1    2.81851184   -4.29997827    8.21142523    -54.83920670  -27.08944862   31.85722450     60.69695742   92.16096830  -35.53488191
    8    6.80022275    1.63305539   -8.20376586     70.53145306  112.43706078   21.28147063     -4.12821186   -4.26174968   -0.26486661
    1    7.26902711    0.99108834   -8.81238243    -89.17953350  -30.65260805   38.15172578     75.12845453   23.73548941   -0.43364411
    1    5.93163603    1.55205987   -7.72208793     20.24541111  -82.65620832  -60.84244199    -32.86490069   67.05449256   -6.27343632
    8    3.45383447    0.40612231   -5.13500397    -27.34400082  -56.96909780  -47.24822907      5.09405253   20.07286948    9.40401548
    1    2.76861582    1.10921181   -4.95650181     64.41591733    9.29888722   27.88170384    -98.81867988  -47.93747554   -9.99931377
    1    4.34076089    0.44820119   -4.72826434    -34.76575848   51.29993660   20.20834948     28.42861440  -97.15815786   10.30813510
    8    2.43319591    2.83082926    2.67127047     63.62079587   -4.65566148  -51.35672183     -5.57867987    0.45125827   11.04491680
    1    2.52008788    2.11804081    3.33179570    -50.25656902   38.62794972    6.40420638     89.80543670  -68.08085124  -39.18511998
    1    1.69117746    3.45278924    2.76750283    -13.80498569  -32.61101990   37.17113069    -23.65013273   37.65281975 -115.73602327
    8   -6.92159154    9.54529694   -8.27673068    -84.18090237  -71.02326807   71.04014270      3.44284670    2.35153471  -12.05209305
    1   -6.53924656    8.97726375   -9.02194061     35.23166297  108.00731306   12.71624766    -35.48743347  -66.61909707   31.28719928
    1   -6.75998116   -9.49143051   -8.04030113     54.28217015  -36.38948678  -80.89989575     49.59147700   23.87024910   22.92225634
    8   -5.56200655   -6.16659170    0.76517281    -81.79022287  123.73067754  -26.53191389     -1.48993406   -4.02318128   -2.08475655
    1   -5.91869694   -6.67596322    1.54700000     87.86734323  -45.48537159  -47.93750509     20.77281622   21.12607593   30.00206851
    1   -4.78908443   -6.31049847    0.16184570     -6.55571268  -78.68708889   73.69561254      0.95626031   30.88745945    4.35901441
    8    2.04020172    2.88193001   -4.79507101     71.78725729  -79.28060388   -1.33878196      1.02973446   -0.89474351    2.02874828
    1    2.34455128    3.76054297   -5.10510481    -66.69425403    4.84931626   14.44489256    135.36556389  -17.28541793   -1.00086338
    1    1.13880922    2.71406436   -4.47730833     -4.10597652   69.17290279  -14.73405429     12.18562351 -103.16932622   27.67796555
    8    9.54698339   -5.21132310    6.94623734     -0.58864623   -7.37568500  -66.31572837      1.13061891    2.03885305   11.91271620
    1    9.75370402   -4.26443016    6.97345546     -2.60313027  -12.90218933   31.39048432     13.67639209   16.18867436 -154.08023218
    1    9.48783000   -5.58628865    7.81507198      3.25504392   18.20241689   33.97962347    -58.27798371 -107.90177627  -27.22791037
    8    7.91475384    6.59373415   -5.17323154     46.75377710   59.64458878  -99.33647927     -3.70815764    3.02715433    1.52060578
    1    7.05378593    6.58902589   -5.70288545     13.06299555  -22.18216388   68.55450763     70.92124345   73.68227218 -141.05667768
    1    7.95893770    6.20446116   -4.33661289    -60.67563325  -34.00355386   29.39081963     72.77458808   -7.26236726    5.13496501
    8    0.73152036    0.15138394    0.15883986    -30.48843160   91.25358795   45.08145835      7.61542555   -9.47647414   -2.21451120
    1    0.40101003   -0.32211132   -0.59833119     42.47801481  -49.38511672    5.94320861    -57.91215937   54.87783760  -42.52214403
    1    1.47160727   -0.18608395    0.70492090    -10.70732680  -40.91646528  -51.35254792     24.88796573  100.78901842   84.00287288
    8   -8.72714565    7.06275143    9.87659922     54.85084726  -74.04206035  -85.79783249     -3.62243804   -0.33956603    9.81657500
    1   -9.71839094    6.95911643    9.91254479     40.11984673   57.74677135   62.00696167    -26.79999727   19.35113899  -81.75393994
    1   -8.17734292    7.62804849   -9.54344631    -85.24830752   14.52711557   26.65254093     77.50182018  -26.65934384  -40.63570344
    8    2.09265578    1.99067404    8.52953967     96.72532785  -57.81991151  -12.24289412     -9.75918172    4.48656845   -5.75290257
    1    1.71208442    1.53014546    7.71032045    -33.19476829   46.37901868   44.85421784    106.71957911 -122.53962353   -0.42517474
    1    1.60338229    2.64838615    8.97676944    -63.98556077    8.91323709  -28.99077844     -5.17803719   24.61374947   62.84683594
    8    4.14153324    3.37141778   -9.09528845     49.30428251   94.67899009   40.01511840     -1.72511313  -11.20712015    3.33120042
    1    3.56457220    2.67723021   -8.75678433      2.06196727  -25.43220462  -67.62314763    -17.73572925   -0.32273796   66.94095723
    1    4.45613955    3.45504945    9.96010254    -50.00736045  -66.97167427   27.25971717     56.64020872  113.18164745   24.72818490
    8    1.72170853    7.34532010    0.62035665    -13.40318203  -70.94663931   63.72063350     -0.23997202   12.66336217   -2.50182410
    1    1.72980872    7.06335176   -0.31642853      9.77962942   67.18501372    3.63897211    -46.48334577 -101.66297620   19.26535833
    1    1.88688508    8.27666481    0.86642050      1.26813631    5.57289187  -67.69554308     21.01073086    2.22809123  123.31617709
    8    9.72989476    9.44829960   -9.64099740     77.20918124  -17.80259787  -57.97871675      1.05807337    4.32760302    5.45878362
    1    9.14134594   -9.80195908   -9.88837787    -20.80627401  -32.98465486   63.55349377     27.48321516   -5.50840803 -110.29571137
    1    9.59673633    8.95398377   -8.80381095    -48.52071735   52.16801864  -10.52369940     14.62731875 -120.46729245  -17.02969833
    8    9.75650210    0.35866187   -5.18375355   -101.12912141   24.43174946   59.32702879      2.18716843   -1.32937840   -6.66126245
    1    9.42864995   -0.10987767   -6.02105596    102.22589033   20.35893907   25.63347507    -97.03777676  -53.93864444   42.41930831
    1   -9.31612399    0.55610551   -4.89727342     -0.61692245  -42.71266309  -86.04369524      1.94394563   -1.80411325   53.96708584
    8   -9.04035768   -6.95397641   -8.30950521    -18.70561570  -79.65597287   48.66889471      6.52458052    2.08717464   -2.45744951
    1   -9.15004942   -6.87443031   -9.27791134     14.63145824   57.05738021   23.08615079    -34.92756841 -127.78611592  -45.64345931
    1   -8.85872922   -6.15539935   -7.76607591     -1.48919740   16.49600451  -69.01969520     18.55692796  -73.18250182   96.46700053
    8    3.84421170   -9.88149466   -8.10158485     31.49833662  -10.30025439   92.23363735     -0.64132845   -1.14214958   -9.87537330
    1    3.29218424    9.34642445   -8.33025270      0.80367596   41.23567936  -49.15395131    -36.65580686  -42.41614332  131.35220468
    1    4.02558014   -9.19282685   -8.75335705    -36.60175126  -28.98942161  -41.56928128     64.87176383   83.67984890   49.10214596
    8    0.06463108    0.14029897   -7.80217612    -51.65098804   61.37098219  -18.04454103      5.52389564   -2.26532301    9.22677653
    1    0.88007858    0.03619467   -8.33803155     -5.23065413  -49.10990766   50.88533351    -40.23940173   46.76242245 -108.29075720
    1   -0.14475000   -0.47099090   -7.06065785     58.27868831  -13.65705742  -31.86139362   -100.08603223   10.83351708   26.74425140
    8    4.49605361    9.34577894    0.96941379    -79.91321725   -1.57769019  -27.05642933      7.20594800   -2.92789237   -2.88120245
    1    5.01321525   -9.99575129    1.47158266     40.31473051  -51.06259023   -4.05715036    -56.60946151   83.44379815   18.20479473
    1    4.86547074    8.43975044    0.78540305     37.44717992   53.50246431   34.69413855   -101.72436790  -47.91166425  -59.00664605
    8   -5.08622228    6.80121953   -9.68929387     30.56911875   85.19395128 -105.54917056     -0.44139951   -0.17180768    4.89212468
    1   -4.46975704    6.73942600   -8.93007743    -69.36854352  -58.39168816   21.32760965     78.18623655   -0.44090183  -21.91621913
    1   -5.94316235    6.33967269   -9.83076920     33.52387419  -29.95663993   85.62823927    -26.54890222   52.22271796  -66.90415534
    8   -9.72706005    4.04273961    3.45361729      9.75723722  -80.83511361  -51.38993420      1.41562077    7.47339683   18.39920452
    1   -9.49956172    4.95125308    3.28397666    -19.99147848   19.76871057   51.10641879     51.26287922    6.59221276  -69.07575482
    1    9.85026365    3.79857540    4.30755872      9.23306346   62.02771429    4.43914334    -19.45270748 -125.45733048  -17.01381884
    8   -8.41006689    7.59902396   -4.72163480     57.63625971 -106.51358440 -118.55136887      2.05166707   -5.16070964    2.30225001
